data/nesta/nesta_case189_edin__api.m
%%%%%%%%%%%%%%%%%%%%%%%%%%%%%%%%%%%%%%%%%%%%%%%%%%%%%%%%%%%%%%%%%%%%%%%%%%%
%%%%                                                                  %%%%%
%%%%      NICTA Energy System Test Case Archive (NESTA) - v0.1.5      %%%%%
%%%%            Optimal Power Flow - Active Power Increase            %%%%%
%%%%                       30 - October - 2014                        %%%%%
%%%%                                                                  %%%%%
%%%%%%%%%%%%%%%%%%%%%%%%%%%%%%%%%%%%%%%%%%%%%%%%%%%%%%%%%%%%%%%%%%%%%%%%%%%
function mpc = nesta_case189_edin__api
mpc.version = '2';
mpc.baseMVA = 100.0;

%% area data
%	area	refbus
mpc.areas = [
	1	 1;
];

%% bus data
%	bus_i	type	Pd	Qd	Gs	Bs	area	Vm	Va	baseKV	zone	Vmax	Vmin
mpc.bus = [
	1	 1	 0.00	 0.00	 0.0	 0.0	 1	     1.0500	    -0.0800	 220.0	 1	     1.1000	     0.9000;
	2	 2	 0.88	 0.26	 0.0	 0.0	 1	     0.9900	     0.0600	 13.8	 1	     1.1000	     0.9000;
	3	 2	 5.26	 1.53	 0.0	 0.0	 1	     0.9900	     0.0500	 13.8	 1	     1.1000	     0.9000;
	4	 2	 0.00	 0.00	 0.0	 0.0	 1	     0.9900	    -0.0400	 13.8	 1	     1.1000	     0.9000;
	5	 1	 0.00	 0.00	 0.0	 0.0	 1	     0.9800	     0.0300	 66.0	 1	     1.1000	     0.9000;
	6	 1	 0.00	 0.00	 0.0	 0.0	 1	     0.9800	     0.0300	 66.0	 1	     1.1000	     0.9000;
	7	 1	 0.00	 0.00	 0.0	 0.0	 1	     1.0600	    -0.0600	 220.0	 1	     1.1000	     0.9000;
	8	 2	 0.00	 0.00	 0.0	 0.0	 1	     0.9900	     0.0000	 10.5	 1	     1.1000	     0.9000;
	9	 2	 0.00	 0.00	 0.0	 0.0	 1	     0.9900	     0.0000	 10.5	 1	     1.1000	     0.9000;
	10	 3	 0.00	 0.00	 0.0	 0.0	 1	     0.9900	     0.0000	 10.5	 1	     1.1000	     0.9000;
	11	 1	 0.00	 0.00	 0.0	 0.0	 1	     0.9900	    -0.0700	 132.0	 1	     1.1000	     0.9000;
	12	 1	 0.00	 0.00	 0.0	 0.0	 1	     1.0600	    -0.0600	 220.0	 1	     1.1000	     0.9000;
	13	 2	 0.00	 0.00	 0.0	 0.0	 1	     0.9900	     0.0500	 13.8	 1	     1.1000	     0.9000;
	14	 2	 0.00	 0.00	 0.0	 0.0	 1	     0.9900	     0.0500	 13.8	 1	     1.1000	     0.9000;
	15	 1	 0.00	 0.00	 0.0	 0.0	 1	     1.0600	    -0.0600	 220.0	 1	     1.1000	     0.9000;
	16	 2	 0.00	 0.00	 0.0	 0.0	 1	     0.9900	     0.0600	 11.0	 1	     1.1000	     0.9000;
	17	 1	 0.00	 0.00	 0.0	 0.0	 1	     1.0500	    -0.0900	 220.0	 1	     1.1000	     0.9000;
	18	 2	 0.00	 0.00	 0.0	 0.0	 1	     1.0600	     0.0000	 11.0	 1	     1.1000	     0.9000;
	19	 2	 0.00	 0.00	 0.0	 0.0	 1	     1.0600	     0.0000	 11.0	 1	     1.1000	     0.9000;
	20	 1	 0.00	 0.00	 0.0	 0.0	 1	     1.0500	    -0.0900	 220.0	 1	     1.1000	     0.9000;
	21	 1	 0.00	 0.00	 0.0	 0.0	 1	     1.0400	    -0.0900	 220.0	 1	     1.1000	     0.9000;
	22	 1	 10.95	 7.10	 0.0	 0.0	 1	     0.9600	    -0.0100	 66.0	 1	     1.1000	     0.9000;
	23	 1	 4.24	 1.89	 0.0	 0.0	 1	     0.9700	     0.0000	 66.0	 1	     1.1000	     0.9000;
	24	 1	 8.38	 4.73	 0.0	 0.0	 1	     0.9600	    -0.0200	 66.0	 1	     1.1000	     0.9000;
	25	 1	 0.00	 0.00	 0.0	 0.0	 1	     1.0300	    -0.1200	 220.0	 1	     1.1000	     0.9000;
	26	 1	 0.00	 0.00	 0.0	 0.0	 1	     1.0300	    -0.0800	 132.0	 1	     1.1000	     0.9000;
	27	 2	 0.00	 0.00	 0.0	 0.0	 1	     1.0200	    -0.0200	 10.5	 1	     1.1000	     0.9000;
	28	 2	 0.00	 0.00	 0.0	 0.0	 1	     1.0200	    -0.0200	 10.5	 1	     1.1000	     0.9000;
	29	 2	 0.00	 0.00	 0.0	 0.0	 1	     1.0200	    -0.0300	 10.5	 1	     1.1000	     0.9000;
	30	 1	 0.00	 0.00	 0.0	 0.0	 1	     1.0100	    -0.0400	 66.0	 1	     1.1000	     0.9000;
	31	 1	 0.00	 0.00	 0.0	 0.0	 1	     1.0200	    -0.0200	 66.0	 1	     1.1000	     0.9000;
	32	 2	 0.00	 0.00	 0.0	 0.0	 1	     1.0300	     0.0400	 6.6	 1	     1.1000	     0.9000;
	33	 2	 0.00	 0.00	 0.0	 0.0	 1	     1.0300	     0.0400	 6.6	 1	     1.1000	     0.9000;
	34	 1	 0.00	 0.00	 0.0	 0.0	 1	     1.0200	    -0.0200	 6.6	 1	     1.1000	     0.9000;
	35	 1	 0.00	 0.00	 0.0	 0.0	 1	     1.0100	    -0.0400	 66.0	 1	     1.1000	     0.9000;
	36	 2	 0.00	 0.00	 0.0	 0.0	 1	     1.0200	     0.0100	 6.6	 1	     1.1000	     0.9000;
	37	 1	 4.23	 1.23	 0.0	 0.0	 1	     0.9900	    -0.0800	 11.0	 1	     1.1000	     0.9000;
	38	 1	 8.74	 3.53	 0.0	 0.0	 1	     1.0100	    -0.0400	 66.0	 1	     1.1000	     0.9000;
	39	 1	 0.00	 0.00	 0.0	 0.0	 1	     1.0200	    -0.1300	 220.0	 1	     1.1000	     0.9000;
	40	 1	 0.00	 0.00	 0.0	 0.0	 1	     1.0200	    -0.1100	 132.0	 1	     1.1000	     0.9000;
	41	 1	 0.00	 0.00	 0.0	 0.0	 1	     1.0200	    -0.1300	 220.0	 1	     1.1000	     0.9000;
	42	 2	 0.00	 0.00	 0.0	 0.0	 1	     1.0500	    -0.0300	 11.0	 1	     1.1000	     0.9000;
	43	 2	 0.00	 0.00	 0.0	 0.0	 1	     1.0500	    -0.0300	 11.0	 1	     1.1000	     0.9000;
	44	 1	 12.34	 5.12	 0.0	 0.0	 1	     0.9700	    -0.0400	 66.0	 1	     1.1000	     0.9000;
	45	 1	 5.99	 2.73	 0.0	 0.0	 1	     0.9200	    -0.0700	 33.0	 1	     1.1000	     0.9000;
	46	 1	 0.00	 0.00	 0.0	 0.0	 1	     1.0300	    -0.1100	 220.0	 1	     1.1000	     0.9000;
	47	 1	 0.00	 0.00	 0.0	 0.0	 1	     1.0200	    -0.1100	 132.0	 1	     1.1000	     0.9000;
	48	 1	 0.00	 0.00	 0.0	 0.0	 1	     1.0200	    -0.1300	 220.0	 1	     1.1000	     0.9000;
	49	 1	 11.28	 2.50	 0.0	 0.0	 1	     1.0300	    -0.1200	 132.0	 1	     1.1000	     0.9000;
	50	 2	 0.00	 0.00	 0.0	 0.0	 1	     1.0500	    -0.0700	 11.0	 1	     1.1000	     0.9000;
	51	 2	 0.00	 0.00	 0.0	 0.0	 1	     1.0500	    -0.0700	 11.0	 1	     1.1000	     0.9000;
	52	 2	 0.00	 0.00	 0.0	 0.0	 1	     1.0500	    -0.0700	 11.0	 1	     1.1000	     0.9000;
	53	 2	 0.00	 0.00	 0.0	 0.0	 1	     1.0500	    -0.0700	 11.0	 1	     1.1000	     0.9000;
	54	 1	 9.31	 2.05	 0.0	 0.0	 1	     1.0100	    -0.0400	 66.0	 1	     1.1000	     0.9000;
	55	 1	 0.00	 0.00	 0.0	 0.0	 1	     1.0300	    -0.1200	 132.0	 1	     1.1000	     0.9000;
	56	 1	 0.00	 0.00	 0.0	 0.0	 1	     1.0300	    -0.1300	 132.0	 1	     1.1000	     0.9000;
	57	 1	 0.00	 0.00	 0.0	 0.0	 1	     1.0200	    -0.1400	 220.0	 1	     1.1000	     0.9000;
	58	 1	 0.00	 0.00	 0.0	 0.3	 1	     1.0200	    -0.1300	 132.0	 1	     1.1000	     0.9000;
	59	 1	 0.00	 0.00	 0.0	 0.0	 1	     1.0200	    -0.1300	 132.0	 1	     1.1000	     0.9000;
	60	 1	 300.08	 68.47	 0.0	 0.0	 1	     0.9800	    -0.2700	 21.0	 1	     1.1000	     0.9000;
	61	 1	 0.00	 0.00	 0.0	 0.0	 1	     1.0100	    -0.1500	 220.0	 1	     1.1000	     0.9000;
	62	 1	 0.00	 0.00	 0.0	 0.0	 1	     1.0100	    -0.1500	 220.0	 1	     1.1000	     0.9000;
	63	 1	 164.55	 36.81	 0.0	 0.0	 1	     1.0000	    -0.2300	 33.0	 1	     1.1000	     0.9000;
	64	 1	 0.00	 0.00	 0.0	 0.0	 1	     1.0200	    -0.1400	 220.0	 1	     1.1000	     0.9000;
	65	 1	 74.70	 12.00	 0.0	 0.0	 1	     1.0300	    -0.1400	 33.0	 1	     1.1000	     0.9000;
	66	 1	 0.00	 0.00	 0.0	 0.0	 1	     1.0200	    -0.1400	 220.0	 1	     1.1000	     0.9000;
	67	 1	 119.52	 20.00	 0.0	 0.0	 1	     1.0300	    -0.1400	 33.0	 1	     1.1000	     0.9000;
	68	 1	 83.66	 14.00	 0.0	 0.0	 1	     1.0300	    -0.1400	 33.0	 1	     1.1000	     0.9000;
	69	 1	 0.00	 0.00	 0.0	 0.0	 1	     1.0200	    -0.1300	 132.0	 1	     1.1000	     0.9000;
	70	 1	 50.85	 20.90	 0.0	 0.0	 1	     1.0000	    -0.1700	 33.0	 1	     1.1000	     0.9000;
	71	 1	 0.00	 0.00	 0.0	 0.08	 1	     1.0200	    -0.1400	 220.0	 1	     1.1000	     0.9000;
	72	 1	 0.00	 0.00	 0.0	 0.43	 1	     1.0300	    -0.1200	 132.0	 1	     1.1000	     0.9000;
	73	 1	 0.00	 0.00	 0.0	 0.0	 1	     1.0300	    -0.1200	 132.0	 1	     1.1000	     0.9000;
	74	 1	 25.89	 9.28	 0.0	 0.0	 1	     1.0000	    -0.2000	 11.0	 1	     1.1000	     0.9000;
	75	 1	 0.00	 0.00	 0.0	 0.0	 1	     1.0200	    -0.1300	 220.0	 1	     1.1000	     0.9000;
	76	 1	 0.00	 0.00	 0.0	 0.75	 1	     1.0100	    -0.2200	 220.0	 1	     1.1000	     0.9000;
	77	 1	 0.82	 0.24	 0.0	 0.0	 1	     0.9900	    -0.2100	 132.0	 1	     1.1000	     0.9000;
	78	 1	 11.59	 3.38	 0.0	 0.0	 1	     1.0100	    -0.2400	 66.0	 1	     1.1000	     0.9000;
	79	 1	 0.00	 0.00	 0.0	 0.0	 1	     1.0100	    -0.2400	 11.0	 1	     1.1000	     0.9000;
	80	 1	 186.76	 31.30	 0.0	 0.0	 1	     1.0000	    -0.2200	 220.0	 1	     1.1000	     0.9000;
	81	 1	 566.21	 92.49	 0.0	 0.0	 1	     1.0000	    -0.2300	 220.0	 1	     1.1000	     0.9000;
	82	 1	 0.00	 0.00	 0.0	 0.0	 1	     1.0200	    -0.1400	 132.0	 1	     1.1000	     0.9000;
	83	 1	 38.81	 18.84	 0.0	 0.0	 1	     1.0600	    -0.1500	 11.0	 1	     1.1000	     0.9000;
	84	 1	 0.00	 0.00	 0.0	 0.0	 1	     1.0200	    -0.1400	 132.0	 1	     1.1000	     0.9000;
	85	 1	 23.65	 10.92	 0.0	 0.0	 1	     0.9900	    -0.1700	 11.0	 1	     1.1000	     0.9000;
	86	 1	 0.00	 0.00	 0.0	 0.0	 1	     1.0200	    -0.1400	 132.0	 1	     1.1000	     0.9000;
	87	 1	 12.46	 8.96	 0.0	 0.0	 1	     1.0000	    -0.1400	 11.0	 1	     1.1000	     0.9000;
	88	 1	 0.00	 0.00	 0.0	 0.0	 1	     1.0300	    -0.1200	 132.0	 1	     1.1000	     0.9000;
	89	 1	 23.11	 8.04	 0.0	 0.0	 1	     0.9800	    -0.1600	 11.0	 1	     1.1000	     0.9000;
	90	 1	 0.00	 0.00	 0.0	 0.0	 1	     1.0300	    -0.1200	 132.0	 1	     1.1000	     0.9000;
	91	 1	 12.34	 4.25	 0.0	 0.0	 1	     1.0200	    -0.1400	 11.0	 1	     1.1000	     0.9000;
	92	 1	 0.00	 0.00	 0.0	 0.0	 1	     1.0300	    -0.1200	 132.0	 1	     1.1000	     0.9000;
	93	 1	 22.57	 10.00	 0.0	 0.0	 1	     1.0300	     0.0200	 132.0	 1	     1.1000	     0.9000;
	94	 1	 0.00	 0.00	 0.0	 0.0	 1	     1.0300	     0.0600	 132.0	 1	     1.1000	     0.9000;
	95	 1	 0.00	 0.00	 0.0	 0.0	 1	     1.0300	     0.0600	 11.0	 1	     1.1000	     0.9000;
	96	 1	 0.00	 0.00	 0.0	 0.0	 1	     1.0300	     0.0500	 132.0	 1	     1.1000	     0.9000;
	97	 1	 0.00	 0.00	 0.0	 0.0	 1	     1.0300	     0.0900	 132.0	 1	     1.1000	     0.9000;
	98	 2	 0.00	 0.00	 0.0	 0.0	 1	     1.0300	     0.1700	 11.0	 1	     1.1000	     0.9000;
	99	 2	 0.00	 0.00	 0.0	 0.0	 1	     1.0300	     0.1700	 11.0	 1	     1.1000	     0.9000;
	100	 1	 0.00	 0.00	 0.0	 0.0	 1	     1.0300	     0.0900	 11.0	 1	     1.1000	     0.9000;
	101	 1	 0.00	 0.00	 0.0	 0.0	 1	     1.0300	     0.0900	 11.0	 1	     1.1000	     0.9000;
	102	 2	 5.65	 1.25	 0.0	 0.0	 1	     1.0500	     0.1700	 11.0	 1	     1.1000	     0.9000;
	103	 1	 0.00	 0.00	 0.0	 0.0	 1	     0.9800	    -0.2000	 132.0	 1	     1.1000	     0.9000;
	104	 2	 33.06	 4.05	 0.0	 0.0	 1	     1.0000	    -0.2900	 66.0	 1	     1.1000	     0.9000;
	105	 1	 7.99	 2.33	 0.0	 0.0	 1	     0.9800	    -0.3200	 19.0	 1	     1.1000	     0.9000;
	106	 1	 0.00	 0.00	 0.0	 0.0	 1	     0.9800	    -0.3200	 0.41	 1	     1.1000	     0.9000;
	107	 1	 0.00	 0.00	 0.0	 0.0	 1	     1.0000	    -0.2900	 11.0	 1	     1.1000	     0.9000;
	108	 1	 0.00	 0.00	 0.0	 0.0	 1	     0.9800	    -0.3200	 11.0	 1	     1.1000	     0.9000;
	109	 1	 0.00	 0.00	 0.0	 0.0	 1	     0.9900	    -0.1500	 132.0	 1	     1.1000	     0.9000;
	110	 1	 2.69	 0.20	 0.0	 0.0	 1	     0.9900	    -0.1600	 19.0	 1	     1.1000	     0.9000;
	111	 1	 0.00	 0.00	 0.0	 0.0	 1	     0.9900	    -0.1600	 0.41	 1	     1.1000	     0.9000;
	112	 1	 0.00	 0.00	 0.0	 0.0	 1	     0.9900	    -0.1600	 11.0	 1	     1.1000	     0.9000;
	113	 1	 0.00	 0.00	 0.0	 0.0	 1	     0.9900	    -0.1700	 132.0	 1	     1.1000	     0.9000;
	114	 1	 3.00	 -1.00	 0.0	 0.0	 1	     1.0700	    -0.2000	 33.0	 1	     1.1000	     0.9000;
	115	 1	 0.00	 0.00	 0.0	 0.0	 1	     0.9800	    -0.2100	 132.0	 1	     1.1000	     0.9000;
	116	 1	 29.88	 2.11	 0.0	 0.0	 1	     0.9900	    -0.2800	 66.0	 1	     1.1000	     0.9000;
	117	 2	 5.98	 1.05	 0.0	 0.0	 1	     1.0300	    -0.2400	 6.3	 1	     1.1000	     0.9000;
	118	 1	 0.00	 0.00	 0.0	 0.0	 1	     1.0100	    -0.2600	 33.0	 1	     1.1000	     0.9000;
	119	 1	 0.00	 0.00	 0.0	 0.0	 1	     0.9900	    -0.1300	 132.0	 1	     1.1000	     0.9000;
	120	 1	 3.84	 1.12	 0.0	 0.0	 1	     1.0000	    -0.1500	 19.0	 1	     1.1000	     0.9000;
	121	 1	 0.00	 0.00	 0.0	 0.0	 1	     1.0000	    -0.1500	 0.41	 1	     1.1000	     0.9000;
	122	 1	 0.00	 0.00	 0.0	 0.0	 1	     1.0000	    -0.1500	 11.0	 1	     1.1000	     0.9000;
	123	 1	 0.00	 0.00	 0.0	 0.0	 1	     1.0100	    -0.0100	 132.0	 1	     1.1000	     0.9000;
	124	 1	 7.47	 0.92	 0.0	 0.0	 1	     1.0300	    -0.0700	 33.0	 1	     1.1000	     0.9000;
	125	 1	 0.00	 0.00	 0.0	 0.0	 1	     1.0200	     0.0400	 132.0	 1	     1.1000	     0.9000;
	126	 2	 0.00	 0.00	 0.0	 0.0	 1	     1.0200	     0.1000	 11.0	 1	     1.1000	     0.9000;
	127	 2	 0.00	 0.00	 0.0	 0.0	 1	     1.0200	     0.1000	 11.0	 1	     1.1000	     0.9000;
	128	 1	 0.00	 0.00	 0.0	 0.0	 1	     1.0200	     0.1000	 11.0	 1	     1.1000	     0.9000;
	129	 1	 0.00	 0.00	 0.0	 0.0	 1	     1.0200	     0.1000	 11.0	 1	     1.1000	     0.9000;
	130	 1	 0.00	 0.00	 0.0	 0.0	 1	     1.0200	     0.0400	 132.0	 1	     1.1000	     0.9000;
	131	 1	 13.45	 1.47	 0.0	 0.0	 1	     1.0400	    -0.0300	 66.0	 1	     1.1000	     0.9000;
	132	 1	 0.00	 0.00	 0.0	 0.0	 1	     1.0200	     0.0500	 132.0	 1	     1.1000	     0.9000;
	133	 1	 19.42	 1.00	 0.0	 0.0	 1	     1.0300	     0.0400	 66.0	 1	     1.1000	     0.9000;
	134	 1	 6.10	 1.78	 0.0	 0.0	 1	     1.0000	     0.0000	 11.0	 1	     1.1000	     0.9000;
	135	 1	 0.00	 0.00	 0.0	 0.0	 1	     1.0000	     0.0000	 0.41	 1	     1.1000	     0.9000;
	136	 1	 0.00	 0.00	 0.0	 0.0	 1	     1.0000	     0.0000	 11.0	 1	     1.1000	     0.9000;
	137	 1	 0.00	 0.00	 0.0	 0.0	 1	     1.0200	     0.0800	 132.0	 1	     1.1000	     0.9000;
	138	 2	 0.00	 0.00	 0.0	 0.0	 1	     1.0000	     0.1900	 11.0	 1	     1.1000	     0.9000;
	139	 2	 3.39	 0.99	 0.0	 0.0	 1	     1.0000	     0.1900	 11.0	 1	     1.1000	     0.9000;
	140	 1	 0.00	 0.00	 0.0	 0.0	 1	     1.0000	     0.1900	 0.41	 1	     1.1000	     0.9000;
	141	 1	 0.00	 0.00	 0.0	 0.0	 1	     1.0200	     0.2500	 11.0	 1	     1.1000	     0.9000;
	142	 2	 0.00	 0.00	 0.0	 0.0	 1	     1.0200	     0.2500	 11.0	 1	     1.1000	     0.9000;
	143	 1	 12.07	 0.50	 0.0	 0.0	 1	     1.0600	     0.1100	 66.0	 1	     1.1000	     0.9000;
	144	 2	 0.00	 0.00	 0.0	 0.0	 1	     1.0600	     0.1800	 11.0	 1	     1.1000	     0.9000;
	145	 1	 0.00	 0.00	 0.0	 0.0	 1	     1.0300	     0.1100	 33.0	 1	     1.1000	     0.9000;
	146	 1	 0.00	 0.00	 0.0	 0.0	 1	     1.0600	     0.1100	 6.6	 1	     1.1000	     0.9000;
	147	 1	 0.00	 0.00	 0.0	 0.0	 1	     1.0600	     0.1100	 11.0	 1	     1.1000	     0.9000;
	148	 1	 0.00	 0.00	 0.0	 0.0	 1	     1.0600	     0.1400	 0.38	 1	     1.1000	     0.9000;
	149	 1	 0.00	 0.00	 0.0	 0.0	 1	     1.0600	     0.1100	 0.22	 1	     1.1000	     0.9000;
	150	 1	 0.00	 0.00	 0.0	 0.0	 1	     1.0600	     0.1100	 0.38	 1	     1.1000	     0.9000;
	151	 1	 0.00	 0.00	 0.0	 0.0	 1	     1.0600	     0.1100	 0.22	 1	     1.1000	     0.9000;
	152	 1	 0.00	 0.00	 0.0	 0.0	 1	     1.0600	     0.1100	 6.6	 1	     1.1000	     0.9000;
	153	 1	 0.00	 0.00	 0.0	 0.0	 1	     1.0600	     0.1100	 6.6	 1	     1.1000	     0.9000;
	154	 1	 0.00	 0.00	 0.0	 0.0	 1	     1.0600	     0.1100	 0.22	 1	     1.1000	     0.9000;
	155	 1	 0.01	 0.01	 0.0	 0.0	 1	     1.0300	    -0.0900	 132.0	 1	     1.1000	     0.9000;
	156	 1	 25.97	 4.40	 0.0	 0.0	 1	     1.0300	    -0.1500	 66.0	 1	     1.1000	     0.9000;
	157	 1	 0.00	 0.00	 0.0	 0.0	 1	     1.0300	    -0.0900	 132.0	 1	     1.1000	     0.9000;
	158	 1	 0.00	 0.00	 0.0	 0.0	 1	     1.0200	    -0.0900	 132.0	 1	     1.1000	     0.9000;
	159	 1	 15.15	 2.70	 0.0	 0.0	 1	     1.0300	    -0.1400	 66.0	 1	     1.1000	     0.9000;
	160	 1	 0.00	 0.00	 0.0	 0.0	 1	     1.0300	    -0.1400	 11.0	 1	     1.1000	     0.9000;
	161	 1	 0.00	 0.00	 0.0	 0.0	 1	     1.0300	    -0.0900	 132.0	 1	     1.1000	     0.9000;
	162	 1	 4.29	 0.40	 0.0	 0.0	 1	     1.0000	    -0.1200	 11.0	 1	     1.1000	     0.9000;
	163	 1	 0.00	 0.00	 0.0	 0.0	 1	     1.0100	    -0.1100	 33.0	 1	     1.1000	     0.9000;
	164	 1	 0.00	 0.00	 0.0	 0.0	 1	     1.0000	    -0.1200	 0.41	 1	     1.1000	     0.9000;
	165	 1	 0.00	 0.00	 0.0	 0.0	 1	     1.0100	    -0.1100	 11.0	 1	     1.1000	     0.9000;
	166	 1	 0.00	 0.00	 0.0	 0.0	 1	     1.0200	    -0.1000	 132.0	 1	     1.1000	     0.9000;
	167	 1	 10.85	 0.40	 0.0	 0.0	 1	     1.0000	    -0.1300	 11.0	 1	     1.1000	     0.9000;
	168	 1	 0.00	 0.00	 0.0	 0.0	 1	     1.0000	    -0.1300	 0.41	 1	     1.1000	     0.9000;
	169	 1	 0.00	 0.00	 0.0	 0.0	 1	     1.0000	    -0.1300	 11.0	 1	     1.1000	     0.9000;
	170	 1	 0.00	 0.00	 0.0	 0.0	 1	     1.0400	    -0.1100	 132.0	 1	     1.1000	     0.9000;
	171	 1	 0.00	 0.00	 0.0	 0.0	 1	     1.0000	    -0.1300	 19.0	 1	     1.1000	     0.9000;
	172	 1	 0.00	 0.00	 0.0	 0.0	 1	     1.0100	    -0.0900	 132.0	 1	     1.1000	     0.9000;
	173	 1	 2.58	 0.20	 0.0	 0.0	 1	     1.0100	    -0.1000	 19.0	 1	     1.1000	     0.9000;
	174	 1	 0.00	 0.00	 0.0	 0.0	 1	     1.0100	    -0.1000	 0.41	 1	     1.1000	     0.9000;
	175	 1	 0.00	 0.00	 0.0	 0.0	 1	     1.0100	    -0.1000	 11.0	 1	     1.1000	     0.9000;
	176	 1	 0.00	 0.00	 0.0	 0.0	 1	     1.0300	    -0.0700	 132.0	 1	     1.1000	     0.9000;
	177	 1	 0.00	 0.00	 0.0	 0.0	 1	     1.0000	    -0.0700	 220.0	 1	     1.1000	     0.9000;
	178	 1	 7.77	 3.00	 0.0	 0.0	 1	     0.9800	    -0.1000	 11.0	 1	     1.1000	     0.9000;
	179	 1	 0.00	 0.00	 0.0	 0.0	 1	     1.0000	    -0.0800	 69.0	 1	     1.1000	     0.9000;
	180	 1	 0.00	 0.00	 0.0	 0.0	 1	     1.0000	    -0.0800	 69.0	 1	     1.1000	     0.9000;
	181	 1	 0.00	 0.00	 0.0	 0.0	 1	     1.0000	    -0.0800	 69.0	 1	     1.1000	     0.9000;
	182	 1	 0.00	 0.00	 0.0	 0.0	 1	     1.0000	    -0.0800	 69.0	 1	     1.1000	     0.9000;
	183	 1	 0.00	 0.00	 0.0	 0.0	 1	     1.0000	    -0.0800	 69.0	 1	     1.1000	     0.9000;
	184	 1	 7.78	 3.00	 0.0	 0.0	 1	     0.9800	    -0.1000	 11.0	 1	     1.1000	     0.9000;
	185	 1	 14.45	 1.60	 0.0	 0.0	 1	     1.0100	    -0.1600	 66.0	 1	     1.1000	     0.9000;
	186	 2	 0.00	 0.00	 0.0	 0.0	 1	     1.0100	    -0.1200	 6.6	 1	     1.1000	     0.9000;
	187	 1	 0.00	 0.00	 0.0	 0.0	 1	     1.0100	    -0.1600	 11.0	 1	     1.1000	     0.9000;
	188	 1	 0.00	 0.00	 0.0	 0.0	 1	     1.0000	    -0.0800	 220.0	 1	     1.1000	     0.9000;
	189	 1	 0.00	 0.00	 0.0	 0.0	 1	     1.0000	    -0.0800	 220.0	 1	     1.1000	     0.9000;
];

%% generator data
%	bus	Pg	Qg	Qmax	Qmin	Vg	mBase	status	Pmax	Pmin	Pc1	Pc2	Qc1min	Qc1max	Qc2min	Qc2max	ramp_agc	ramp_10	ramp_30	ramp_q	apf
mpc.gen = [
	10	 61.0	 22.0	 85.0	 -85.0	 0.99	 69.3	 1	 169	 0.0	 0.0	 0.0	 0.0	 0.0	 0.0	 0.0	 0.0	 0.0	 0.0	 0.0	 0.0; % NG
	2	 109.0	 38.0	 78.0	 -78.0	 0.99	 106.6	 1	 155	 0.0	 0.0	 0.0	 0.0	 0.0	 0.0	 0.0	 0.0	 0.0	 0.0	 0.0	 0.0; % NG
	3	 114.0	 39.0	 147.0	 -147.0	 0.99	 106.6	 1	 294	 0.0	 0.0	 0.0	 0.0	 0.0	 0.0	 0.0	 0.0	 0.0	 0.0	 0.0	 0.0; % NG
	4	 133.0	 47.0	 104.0	 -104.0	 0.99	 53.3	 1	 208	 0.0	 0.0	 0.0	 0.0	 0.0	 0.0	 0.0	 0.0	 0.0	 0.0	 0.0	 0.0; % NG
	8	 61.0	 22.0	 52.0	 -52.0	 0.99	 69.3	 1	 104	 0.0	 0.0	 0.0	 0.0	 0.0	 0.0	 0.0	 0.0	 0.0	 0.0	 0.0	 0.0; % NG
	9	 61.0	 22.0	 139.0	 -139.0	 0.99	 69.3	 1	 277	 0.0	 0.0	 0.0	 0.0	 0.0	 0.0	 0.0	 0.0	 0.0	 0.0	 0.0	 0.0; % COW
	13	 66.0	 22.0	 46.0	 -46.0	 0.99	 81.5	 1	 91	 0.0	 0.0	 0.0	 0.0	 0.0	 0.0	 0.0	 0.0	 0.0	 0.0	 0.0	 0.0; % NG
	14	 66.0	 22.0	 127.0	 -127.0	 0.99	 81.5	 1	 253	 0.0	 0.0	 0.0	 0.0	 0.0	 0.0	 0.0	 0.0	 0.0	 0.0	 0.0	 0.0; % NG
	16	 35.0	 19.0	 23.0	 -23.0	 0.99	 53.3	 1	 46	 0.0	 0.0	 0.0	 0.0	 0.0	 0.0	 0.0	 0.0	 0.0	 0.0	 0.0	 0.0; % NG
	18	 116.0	 40.0	 78.0	 -78.0	 1.06	 66.67	 1	 155	 0.0	 0.0	 0.0	 0.0	 0.0	 0.0	 0.0	 0.0	 0.0	 0.0	 0.0	 0.0; % NG
	19	 116.0	 40.0	 94.0	 -94.0	 1.06	 66.67	 1	 188	 0.0	 0.0	 0.0	 0.0	 0.0	 0.0	 0.0	 0.0	 0.0	 0.0	 0.0	 0.0; % NG
	27	 32.0	 21.0	 50.0	 -50.0	 1.02	 19.4	 1	 99	 0.0	 0.0	 0.0	 0.0	 0.0	 0.0	 0.0	 0.0	 0.0	 0.0	 0.0	 0.0; % NG
	28	 33.0	 21.0	 42.0	 -42.0	 1.02	 19.4	 1	 84	 0.0	 0.0	 0.0	 0.0	 0.0	 0.0	 0.0	 0.0	 0.0	 0.0	 0.0	 0.0; % NG
	29	 62.0	 24.0	 56.0	 -56.0	 1.02	 21.0	 1	 111	 0.0	 0.0	 0.0	 0.0	 0.0	 0.0	 0.0	 0.0	 0.0	 0.0	 0.0	 0.0; % NG
	32	 1.0	 6.0	 6.0	 -7.2	 1.03	 16.5	 1	 1	 0.0	 0.0	 0.0	 0.0	 0.0	 0.0	 0.0	 0.0	 0.0	 0.0	 0.0	 0.0; % NG
	33	 1.0	 6.0	 9.9	 -7.2	 1.03	 16.5	 1	 4	 0.0	 0.0	 0.0	 0.0	 0.0	 0.0	 0.0	 0.0	 0.0	 0.0	 0.0	 0.0; % NG
	36	 54.0	 20.0	 79.0	 -79.0	 1.02	 18.2	 1	 158	 0.0	 0.0	 0.0	 0.0	 0.0	 0.0	 0.0	 0.0	 0.0	 0.0	 0.0	 0.0; % NG
	42	 168.0	 71.0	 86.0	 -86.0	 1.05	 55.0	 1	 171	 0.0	 0.0	 0.0	 0.0	 0.0	 0.0	 0.0	 0.0	 0.0	 0.0	 0.0	 0.0; % NG
	43	 168.0	 71.0	 122.0	 -122.0	 1.05	 55.0	 1	 243	 0.0	 0.0	 0.0	 0.0	 0.0	 0.0	 0.0	 0.0	 0.0	 0.0	 0.0	 0.0; % PEL
	50	 38.0	 28.0	 92.0	 -92.0	 1.05	 40.0	 1	 184	 0.0	 0.0	 0.0	 0.0	 0.0	 0.0	 0.0	 0.0	 0.0	 0.0	 0.0	 0.0; % NG
	51	 38.0	 28.0	 57.0	 -57.0	 1.05	 40.0	 1	 113	 0.0	 0.0	 0.0	 0.0	 0.0	 0.0	 0.0	 0.0	 0.0	 0.0	 0.0	 0.0; % NG
	52	 38.0	 28.0	 56.0	 -56.0	 1.05	 40.0	 1	 111	 0.0	 0.0	 0.0	 0.0	 0.0	 0.0	 0.0	 0.0	 0.0	 0.0	 0.0	 0.0; % NG
	53	 38.0	 28.0	 33.6	 -33.6	 1.05	 40.0	 1	 46	 0.0	 0.0	 0.0	 0.0	 0.0	 0.0	 0.0	 0.0	 0.0	 0.0	 0.0	 0.0; % NG
	98	 31.0	 16.0	 27.0	 -27.0	 1.03	 55.0	 1	 53	 0.0	 0.0	 0.0	 0.0	 0.0	 0.0	 0.0	 0.0	 0.0	 0.0	 0.0	 0.0; % COW
	99	 31.0	 16.0	 64.0	 -64.0	 1.03	 55.0	 1	 128	 0.0	 0.0	 0.0	 0.0	 0.0	 0.0	 0.0	 0.0	 0.0	 0.0	 0.0	 0.0; % NG
	102	 61.0	 21.0	 41.0	 -41.0	 1.05	 67.5	 1	 81	 0.0	 0.0	 0.0	 0.0	 0.0	 0.0	 0.0	 0.0	 0.0	 0.0	 0.0	 0.0; % NG
	104	 200.0	 63.0	 141.0	 -141.0	 1.0	 10.0	 1	 282	 0.0	 0.0	 0.0	 0.0	 0.0	 0.0	 0.0	 0.0	 0.0	 0.0	 0.0	 0.0; % NG
	117	 44.0	 4.0	 97.0	 -97.0	 1.03	 20.2	 1	 194	 0.0	 0.0	 0.0	 0.0	 0.0	 0.0	 0.0	 0.0	 0.0	 0.0	 0.0	 0.0; % NG
	126	 20.0	 1.0	 42.0	 -42.0	 1.02	 60.0	 1	 84	 0.0	 0.0	 0.0	 0.0	 0.0	 0.0	 0.0	 0.0	 0.0	 0.0	 0.0	 0.0; % NG
	127	 20.0	 1.0	 32.0	 -32.0	 1.02	 60.0	 1	 64	 0.0	 0.0	 0.0	 0.0	 0.0	 0.0	 0.0	 0.0	 0.0	 0.0	 0.0	 0.0; % NG
	138	 15.0	 4.0	 19.0	 -19.0	 1.0	 37.5	 1	 37	 0.0	 0.0	 0.0	 0.0	 0.0	 0.0	 0.0	 0.0	 0.0	 0.0	 0.0	 0.0; % NG
	139	 15.0	 -1.0	 28.0	 -28.0	 1.0	 37.5	 1	 56	 0.0	 0.0	 0.0	 0.0	 0.0	 0.0	 0.0	 0.0	 0.0	 0.0	 0.0	 0.0; % NG
	142	 7.0	 -8.0	 17.0	 -17.0	 1.02	 3.5	 1	 33	 0.0	 0.0	 0.0	 0.0	 0.0	 0.0	 0.0	 0.0	 0.0	 0.0	 0.0	 0.0; % NG
	144	 1.0	 5.0	 11.0	 -6.0	 1.06	 28.0	 1	 2	 0.0	 0.0	 0.0	 0.0	 0.0	 0.0	 0.0	 0.0	 0.0	 0.0	 0.0	 0.0; % NG
	186	 62.0	 -13.0	 37.0	 -37.0	 1.01	 10.0	 1	 74	 0.0	 0.0	 0.0	 0.0	 0.0	 0.0	 0.0	 0.0	 0.0	 0.0	 0.0	 0.0; % NG
];

%% generator cost data
%	2	startup	shutdown	n	c(n-1)	...	c0
mpc.gencost = [
	2	 0.0	 0.0	 3	   0.000000	   1.365700	   0.000000; % NG
	2	 0.0	 0.0	 3	   0.000000	   1.078690	   0.000000; % NG
	2	 0.0	 0.0	 3	   0.000000	   1.043005	   0.000000; % NG
	2	 0.0	 0.0	 3	   0.000000	   0.740608	   0.000000; % NG
	2	 0.0	 0.0	 3	   0.000000	   1.004843	   0.000000; % NG
	2	 0.0	 0.0	 3	   0.000000	   0.652574	   0.000000; % COW
	2	 0.0	 0.0	 3	   0.000000	   1.053365	   0.000000; % NG
	2	 0.0	 0.0	 3	   0.000000	   0.815682	   0.000000; % NG
	2	 0.0	 0.0	 3	   0.000000	   1.052572	   0.000000; % NG
	2	 0.0	 0.0	 3	   0.000000	   1.055994	   0.000000; % NG
	2	 0.0	 0.0	 3	   0.000000	   1.240593	   0.000000; % NG
	2	 0.0	 0.0	 3	   0.000000	   1.182607	   0.000000; % NG
	2	 0.0	 0.0	 3	   0.000000	   0.855957	   0.000000; % NG
	2	 0.0	 0.0	 3	   0.000000	   1.171668	   0.000000; % NG
	2	 0.0	 0.0	 3	   0.000000	   1.247537	   0.000000; % NG
	2	 0.0	 0.0	 3	   0.000000	   1.154006	   0.000000; % NG
	2	 0.0	 0.0	 3	   0.000000	   0.789187	   0.000000; % NG
	2	 0.0	 0.0	 3	   0.000000	   1.152932	   0.000000; % NG
	2	 0.0	 0.0	 3	   0.000000	   6.615393	   0.000000; % PEL
	2	 0.0	 0.0	 3	   0.000000	   0.925953	   0.000000; % NG
	2	 0.0	 0.0	 3	   0.000000	   0.986847	   0.000000; % NG
	2	 0.0	 0.0	 3	   0.000000	   0.883370	   0.000000; % NG
	2	 0.0	 0.0	 3	   0.000000	   0.782292	   0.000000; % NG
	2	 0.0	 0.0	 3	   0.000000	   0.789597	   0.000000; % COW
	2	 0.0	 0.0	 3	   0.000000	   0.684358	   0.000000; % NG
	2	 0.0	 0.0	 3	   0.000000	   0.764619	   0.000000; % NG
	2	 0.0	 0.0	 3	   0.000000	   1.118323	   0.000000; % NG
	2	 0.0	 0.0	 3	   0.000000	   0.995571	   0.000000; % NG
	2	 0.0	 0.0	 3	   0.000000	   1.482794	   0.000000; % NG
	2	 0.0	 0.0	 3	   0.000000	   1.014535	   0.000000; % NG
	2	 0.0	 0.0	 3	   0.000000	   1.453249	   0.000000; % NG
	2	 0.0	 0.0	 3	   0.000000	   1.097237	   0.000000; % NG
	2	 0.0	 0.0	 3	   0.000000	   0.632991	   0.000000; % NG
	2	 0.0	 0.0	 3	   0.000000	   1.179290	   0.000000; % NG
	2	 0.0	 0.0	 3	   0.000000	   0.866080	   0.000000; % NG
];

%% branch data
%	fbus	tbus	r	x	b	rateA	rateB	rateC	ratio	angle	status	angmin	angmax
mpc.branch = [
	1	 7	 0.0055	 0.0334	 0.04711	 320.0	 320.0	 320.0	 1.0	 0.0	 1	 -30.0	 30.0;
	1	 17	 0.00059	 0.00818	 0.02064	 475.0	 475.0	 475.0	 1.0	 0.0	 1	 -30.0	 30.0;
	1	 21	 0.00138	 0.00908	 0.0128	 333.0	 333.0	 333.0	 1.0	 0.0	 1	 -30.0	 30.0;
	1	 46	 0.0075	 0.04531	 0.06412	 320.0	 320.0	 320.0	 1.0	 0.0	 1	 -30.0	 30.0;
	1	 71	 0.00607	 0.08107	 0.20636	 388.0	 388.0	 388.0	 1.0	 0.0	 1	 -30.0	 30.0;
	5	 6	 0.0	 0.0001	 0.0	 9900.0	 9900.0	 9900.0	 1.0	 0.0	 1	 -30.0	 30.0;
	5	 23	 0.1134	 0.2371	 0.0034	 57.0	 57.0	 57.0	 1.0	 0.0	 1	 -30.0	 30.0;
	6	 22	 0.1892	 0.4045	 0.0057	 58.0	 58.0	 58.0	 1.0	 0.0	 1	 -30.0	 30.0;
	7	 12	 0.0008	 0.00758	 0.0122	 396.0	 396.0	 396.0	 1.0	 0.0	 1	 -30.0	 30.0;
	7	 15	 0.00118	 0.00525	 0.00734	 276.0	 276.0	 276.0	 1.0	 0.0	 1	 -30.0	 30.0;
	11	 172	 0.0414	 0.186	 0.03803	 165.0	 165.0	 165.0	 1.0	 0.0	 1	 -30.0	 30.0;
	12	 17	 0.00186	 0.01775	 0.02631	 398.0	 398.0	 398.0	 1.0	 0.0	 1	 -30.0	 30.0;
	17	 20	 0.0015	 0.01421	 0.02098	 396.0	 396.0	 396.0	 1.0	 0.0	 1	 -30.0	 30.0;
	17	 76	 0.01123	 0.10655	 0.15787	 294.0	 294.0	 294.0	 1.0	 0.0	 1	 -30.0	 30.0;
	17	 76	 0.00673	 0.0629	 0.22871	 394.0	 394.0	 394.0	 1.0	 0.0	 1	 -30.0	 30.0;
	21	 25	 0.00702	 0.04602	 0.06492	 332.0	 332.0	 332.0	 1.0	 0.0	 1	 -30.0	 30.0;
	22	 24	 0.09229	 0.11961	 0.00156	 46.0	 46.0	 46.0	 1.0	 0.0	 1	 -30.0	 30.0;
	23	 24	 0.12833	 0.28719	 0.00422	 59.0	 59.0	 59.0	 1.0	 0.0	 1	 -30.0	 30.0;
	24	 44	 0.1	 0.15	 0.002	 49.0	 49.0	 49.0	 1.0	 0.0	 1	 -30.0	 30.0;
	25	 57	 0.005	 0.0328	 0.0456	 332.0	 332.0	 332.0	 1.0	 0.0	 1	 -30.0	 30.0;
	26	 40	 0.02416	 0.06049	 0.01107	 126.0	 126.0	 126.0	 1.0	 0.0	 1	 -30.0	 30.0;
	30	 35	 0.006	 0.015	 0.0	 63.0	 63.0	 63.0	 1.0	 0.0	 1	 -30.0	 30.0;
	31	 35	 0.0239	 0.0599	 0.0007	 63.0	 63.0	 63.0	 1.0	 0.0	 1	 -30.0	 30.0;
	35	 38	 0.0	 0.0001	 0.0	 9900.0	 9900.0	 9900.0	 1.0	 0.0	 1	 -30.0	 30.0;
	35	 44	 0.0615	 0.1591	 0.0024	 64.0	 64.0	 64.0	 1.0	 0.0	 1	 -30.0	 30.0;
	35	 54	 0.0399	 0.1001	 0.0011	 63.0	 63.0	 63.0	 1.0	 0.0	 1	 -30.0	 30.0;
	39	 41	 0.00023	 0.00222	 0.00329	 400.0	 400.0	 400.0	 1.0	 0.0	 1	 -30.0	 30.0;
	39	 48	 0.00019	 0.00178	 0.00263	 394.0	 394.0	 394.0	 1.0	 0.0	 1	 -30.0	 30.0;
	39	 57	 0.00187	 0.01776	 0.02631	 397.0	 397.0	 397.0	 1.0	 0.0	 1	 -30.0	 30.0;
	40	 47	 0.00055	 0.00324	 0.00018	 189.0	 189.0	 189.0	 1.0	 0.0	 1	 -30.0	 30.0;
	41	 46	 0.0054	 0.03262	 0.04616	 320.0	 320.0	 320.0	 1.0	 0.0	 1	 -30.0	 30.0;
	41	 57	 0.00255	 0.01541	 0.0218	 320.0	 320.0	 320.0	 1.0	 0.0	 1	 -30.0	 30.0;
	41	 75	 0.0009	 0.00852	 0.01259	 396.0	 396.0	 396.0	 1.0	 0.0	 1	 -30.0	 30.0;
	49	 55	 0.00068	 0.00191	 0.02173	 133.0	 133.0	 133.0	 1.0	 0.0	 1	 -30.0	 30.0;
	49	 58	 0.00677	 0.01915	 0.19623	 133.0	 133.0	 133.0	 1.0	 0.0	 1	 -30.0	 30.0;
	55	 56	 0.0083	 0.03772	 0.00758	 167.0	 167.0	 167.0	 1.0	 0.0	 1	 -30.0	 30.0;
	56	 69	 0.00352	 0.00996	 0.10204	 133.0	 133.0	 133.0	 1.0	 0.0	 1	 -30.0	 30.0;
	57	 71	 0.00208	 0.01308	 0.01975	 326.0	 326.0	 326.0	 1.0	 0.0	 1	 -30.0	 30.0;
	57	 71	 0.00208	 0.01308	 0.01975	 326.0	 326.0	 326.0	 1.0	 0.0	 1	 -30.0	 30.0;
	57	 76	 0.0088	 0.0534	 0.076	 320.0	 320.0	 320.0	 1.0	 0.0	 1	 -30.0	 30.0;
	58	 59	 0.0038	 0.0084	 0.0219	 118.0	 118.0	 118.0	 1.0	 0.0	 1	 -30.0	 30.0;
	58	 69	 0.0046	 0.017	 0.0033	 151.0	 151.0	 151.0	 1.0	 0.0	 1	 -30.0	 30.0;
	59	 82	 0.0005	 0.0023	 0.0325	 168.0	 168.0	 168.0	 1.0	 0.0	 1	 -30.0	 30.0;
	61	 71	 0.00041	 0.00262	 0.0046	 328.0	 328.0	 328.0	 1.0	 0.0	 1	 -30.0	 30.0;
	62	 71	 0.00041	 0.00262	 0.0046	 328.0	 328.0	 328.0	 1.0	 0.0	 1	 -30.0	 30.0;
	64	 71	 0.00041	 0.00262	 0.0046	 328.0	 328.0	 328.0	 1.0	 0.0	 1	 -30.0	 30.0;
	66	 71	 0.00041	 0.00262	 0.0046	 328.0	 328.0	 328.0	 1.0	 0.0	 1	 -30.0	 30.0;
	69	 84	 0.0032	 0.0057	 0.1054	 107.0	 107.0	 107.0	 1.0	 0.0	 1	 -30.0	 30.0;
	71	 75	 0.0022	 0.0212	 0.0321	 399.0	 399.0	 399.0	 1.0	 0.0	 1	 -30.0	 30.0;
	72	 73	 0.0011	 0.0046	 0.001	 161.0	 161.0	 161.0	 1.0	 0.0	 1	 -30.0	 30.0;
	72	 92	 0.00465	 0.01776	 0.00547	 154.0	 154.0	 154.0	 1.0	 0.0	 1	 -30.0	 30.0;
	72	 93	 0.0253	 0.101	 0.0219	 157.0	 157.0	 157.0	 1.0	 0.0	 1	 -30.0	 30.0;
	76	 80	 0.0007	 0.004	 0.0061	 311.0	 311.0	 311.0	 1.0	 0.0	 1	 -30.0	 30.0;
	76	 81	 0.0004	 0.00377	 0.00557	 395.0	 395.0	 395.0	 1.0	 0.0	 1	 -30.0	 30.0;
	76	 81	 0.00039	 0.0037	 0.00547	 396.0	 396.0	 396.0	 1.0	 0.0	 1	 -30.0	 30.0;
	77	 103	 0.0106	 0.0476	 0.00985	 166.0	 166.0	 166.0	 1.0	 0.0	 1	 -30.0	 30.0;
	82	 86	 0.00196	 0.00418	 0.04905	 116.0	 116.0	 116.0	 1.0	 0.0	 1	 -30.0	 30.0;
	88	 90	 0.00402	 0.00674	 0.10825	 104.0	 104.0	 104.0	 1.0	 0.0	 1	 -30.0	 30.0;
	90	 92	 0.0001	 0.00042	 0.00591	 161.0	 161.0	 161.0	 1.0	 0.0	 1	 -30.0	 30.0;
	93	 96	 0.00354	 0.0214	 0.00392	 192.0	 192.0	 192.0	 1.0	 0.0	 1	 -30.0	 30.0;
	94	 96	 0.0029	 0.01159	 0.00251	 157.0	 157.0	 157.0	 1.0	 0.0	 1	 -30.0	 30.0;
	96	 97	 0.00583	 0.03524	 0.00646	 192.0	 192.0	 192.0	 1.0	 0.0	 1	 -30.0	 30.0;
	103	 119	 0.0409	 0.1829	 0.03775	 166.0	 166.0	 166.0	 1.0	 0.0	 1	 -30.0	 30.0;
	109	 113	 0.0248	 0.1112	 0.0227	 166.0	 166.0	 166.0	 1.0	 0.0	 1	 -30.0	 30.0;
	109	 119	 0.0178	 0.08	 0.01636	 166.0	 166.0	 166.0	 1.0	 0.0	 1	 -30.0	 30.0;
	113	 115	 0.0429	 0.1927	 0.03945	 160.0	 160.0	 160.0	 1.0	 0.0	 1	 -30.0	 30.0;
	119	 123	 0.0385	 0.1727	 0.0356	 166.0	 166.0	 166.0	 1.0	 0.0	 1	 -30.0	 30.0;
	123	 125	 0.018	 0.0797	 0.0159	 165.0	 165.0	 165.0	 1.0	 0.0	 1	 -30.0	 30.0;
	125	 130	 0.0169	 0.075	 0.0153	 165.0	 165.0	 165.0	 1.0	 0.0	 1	 -30.0	 30.0;
	130	 132	 0.0839	 0.2156	 0.0427	 127.0	 127.0	 127.0	 1.0	 0.0	 1	 -30.0	 30.0;
	132	 137	 0.0435	 0.1952	 0.04	 157.0	 157.0	 157.0	 1.0	 0.0	 1	 -30.0	 30.0;
	133	 143	 0.35284	 0.5564	 0.005	 47.0	 47.0	 47.0	 1.0	 0.0	 1	 -30.0	 30.0;
	137	 176	 0.06485	 0.29293	 0.06014	 105.0	 105.0	 105.0	 1.0	 0.0	 1	 -30.0	 30.0;
	141	 142	 0.0	 0.0001	 0.0	 9900.0	 9900.0	 9900.0	 1.0	 0.0	 1	 -30.0	 30.0;
	155	 157	 0.01419	 0.01638	 0.10193	 87.0	 87.0	 87.0	 1.0	 0.0	 1	 -30.0	 30.0;
	155	 158	 0.01663	 0.07017	 0.01485	 161.0	 161.0	 161.0	 1.0	 0.0	 1	 -30.0	 30.0;
	155	 161	 0.0264	 0.11823	 0.0242	 166.0	 166.0	 166.0	 1.0	 0.0	 1	 -30.0	 30.0;
	155	 176	 0.01322	 0.04968	 0.08516	 153.0	 153.0	 153.0	 1.0	 0.0	 1	 -30.0	 30.0;
	159	 185	 0.30532	 0.5096	 0.003	 51.0	 51.0	 51.0	 1.0	 0.0	 1	 -30.0	 30.0;
	161	 166	 0.0399	 0.1791	 0.0367	 166.0	 166.0	 166.0	 1.0	 0.0	 1	 -30.0	 30.0;
	166	 170	 0.0	 -0.40174	 0.0	 78.0	 78.0	 78.0	 1.0	 0.0	 1	 -30.0	 30.0;
	170	 172	 0.0883	 0.4	 0.0838	 77.0	 77.0	 77.0	 1.0	 0.0	 1	 -30.0	 30.0;
	177	 188	 0.00219	 0.03499	 0.0818	 509.0	 509.0	 509.0	 1.0	 0.0	 1	 -30.0	 30.0;
	188	 189	 0.0	 0.0001	 0.0	 9900.0	 9900.0	 9900.0	 1.0	 0.0	 1	 -30.0	 30.0;
	1	 2	 0.00481	 0.14783	 0.0	 213.0	 213.0	 213.0	 1.0	 0.0	 1	 -30.0	 30.0;
	1	 3	 0.00481	 0.14783	 0.0	 213.0	 213.0	 213.0	 1.0	 0.0	 1	 -30.0	 30.0;
	1	 4	 0.00292	 0.113	 0.0	 279.0	 279.0	 279.0	 1.0	 0.0	 1	 -30.0	 30.0;
	5	 2	 0.01616	 0.101	 0.0	 308.0	 308.0	 308.0	 1.0	 0.0	 1	 -30.0	 30.0;
	6	 3	 0.01616	 0.101	 0.0	 308.0	 308.0	 308.0	 1.0	 0.0	 1	 -30.0	 30.0;
	7	 8	 0.00373	 0.129	 0.0	 244.0	 244.0	 244.0	 1.0	 0.0	 1	 -30.0	 30.0;
	7	 9	 0.00373	 0.129	 0.0	 244.0	 244.0	 244.0	 1.0	 0.0	 1	 -30.0	 30.0;
	7	 10	 0.00373	 0.129	 0.0	 244.0	 244.0	 244.0	 1.0	 0.0	 1	 -30.0	 30.0;
	7	 11	 0.002	 0.1081	 0.0	 292.0	 292.0	 292.0	 1.0	 0.0	 1	 -30.0	 30.0;
	12	 13	 0.00444	 0.15	 0.0	 210.0	 210.0	 210.0	 1.0	 0.0	 1	 -30.0	 30.0;
	12	 14	 0.00444	 0.15	 0.0	 210.0	 210.0	 210.0	 1.0	 0.0	 1	 -30.0	 30.0;
	15	 16	 0.0064	 0.1285	 0.0	 245.0	 245.0	 245.0	 1.0	 0.0	 1	 -30.0	 30.0;
	17	 18	 0.00637	 0.12825	 0.0	 245.0	 245.0	 245.0	 1.0	 0.0	 1	 -30.0	 30.0;
	17	 19	 0.00637	 0.12825	 0.0	 245.0	 245.0	 245.0	 1.0	 0.0	 1	 -30.0	 30.0;
	25	 26	 0.00258	 0.126	 0.0	 250.0	 250.0	 250.0	 1.0	 0.0	 1	 -30.0	 30.0;
	26	 27	 0.00823	 0.1094	 0.0	 287.0	 287.0	 287.0	 1.0	 0.0	 1	 -30.0	 30.0;
	26	 28	 0.0081	 0.1098	 0.0	 286.0	 286.0	 286.0	 1.0	 0.0	 1	 -30.0	 30.0;
	26	 29	 0.00519	 0.099	 0.0	 318.0	 318.0	 318.0	 1.0	 0.0	 1	 -30.0	 30.0;
	26	 30	 0.00583	 0.1167	 0.0	 270.0	 270.0	 270.0	 1.0	 0.0	 1	 -30.0	 30.0;
	31	 32	 0.0035	 0.119	 0.0	 265.0	 265.0	 265.0	 1.0	 0.0	 1	 -30.0	 30.0;
	31	 33	 0.0035	 0.119	 0.0	 265.0	 265.0	 265.0	 1.0	 0.0	 1	 -30.0	 30.0;
	31	 34	 0.00049	 0.11797	 0.0	 267.0	 267.0	 267.0	 1.0	 0.0	 1	 -30.0	 30.0;
	35	 36	 0.00425	 0.0649	 0.0	 485.0	 485.0	 485.0	 1.0	 0.0	 1	 -30.0	 30.0;
	35	 37	 0.16	 1.6	 0.0	 19.0	 19.0	 19.0	 1.0	 0.0	 1	 -30.0	 30.0;
	39	 40	 0.0011	 0.0525	 0.0	 601.0	 601.0	 601.0	 1.0	 0.0	 1	 -30.0	 30.0;
	41	 42	 0.0064	 0.1285	 0.0	 245.0	 245.0	 245.0	 1.0	 0.0	 1	 -30.0	 30.0;
	41	 43	 0.0064	 0.1285	 0.0	 245.0	 245.0	 245.0	 1.0	 0.0	 1	 -30.0	 30.0;
	44	 45	 0.05	 0.1	 0.0	 282.0	 282.0	 282.0	 1.0	 0.0	 1	 -30.0	 30.0;
	49	 50	 0.00522	 0.07661	 0.0	 411.0	 411.0	 411.0	 1.0	 0.0	 1	 -30.0	 30.0;
	49	 51	 0.00522	 0.07661	 0.0	 411.0	 411.0	 411.0	 1.0	 0.0	 1	 -30.0	 30.0;
	49	 52	 0.00522	 0.07661	 0.0	 411.0	 411.0	 411.0	 1.0	 0.0	 1	 -30.0	 30.0;
	49	 53	 0.00522	 0.07661	 0.0	 411.0	 411.0	 411.0	 1.0	 0.0	 1	 -30.0	 30.0;
	57	 58	 0.0011	 0.0427	 0.0	 739.0	 739.0	 739.0	 1.0	 0.0	 1	 -30.0	 30.0;
	61	 60	 0.002	 0.0515	 0.0	 612.0	 612.0	 612.0	 1.0	 0.0	 1	 -30.0	 30.0;
	62	 63	 0.00256	 0.12	 0.0	 263.0	 263.0	 263.0	 1.0	 0.0	 1	 -30.0	 30.0;
	64	 65	 0.00256	 0.12	 0.0	 263.0	 263.0	 263.0	 1.0	 0.0	 1	 -30.0	 30.0;
	66	 67	 0.00256	 0.12	 0.0	 263.0	 263.0	 263.0	 1.0	 0.0	 1	 -30.0	 30.0;
	66	 68	 0.00256	 0.12	 0.0	 263.0	 263.0	 263.0	 1.0	 0.0	 1	 -30.0	 30.0;
	69	 70	 0.0027	 0.06	 0.0	 525.0	 525.0	 525.0	 1.0	 0.0	 1	 -30.0	 30.0;
	71	 72	 0.0011	 0.06	 0.0	 526.0	 526.0	 526.0	 1.0	 0.0	 1	 -30.0	 30.0;
	73	 74	 0.01	 0.1	 0.0	 314.0	 314.0	 314.0	 1.0	 0.0	 1	 -30.0	 30.0;
	76	 77	 0.0018	 0.0608	 0.0	 519.0	 519.0	 519.0	 1.0	 0.0	 1	 -30.0	 30.0;
	77	 78	 0.00378	 0.0806	 0.0	 391.0	 391.0	 391.0	 1.0	 0.0	 1	 -30.0	 30.0;
	78	 79	 0.015	 0.27	 0.0	 116.0	 116.0	 116.0	 1.0	 0.0	 1	 -30.0	 30.0;
	82	 83	 0.0015	 0.0031	 0.0	 9172.0	 9172.0	 9172.0	 1.0	 0.0	 1	 -30.0	 30.0;
	85	 84	 0.003	 0.06	 0.0	 525.0	 525.0	 525.0	 1.0	 0.0	 1	 -30.0	 30.0;
	87	 86	 0.003	 0.06	 0.0	 525.0	 525.0	 525.0	 1.0	 0.0	 1	 -30.0	 30.0;
	89	 88	 0.0036	 0.072	 0.0	 438.0	 438.0	 438.0	 1.0	 0.0	 1	 -30.0	 30.0;
	91	 90	 0.0036	 0.072	 0.0	 438.0	 438.0	 438.0	 1.0	 0.0	 1	 -30.0	 30.0;
	94	 95	 0.00615	 0.12	 0.0	 262.0	 262.0	 262.0	 1.0	 0.0	 1	 -30.0	 30.0;
	94	 102	 0.00615	 0.12	 0.0	 262.0	 262.0	 262.0	 1.0	 0.0	 1	 -30.0	 30.0;
	97	 98	 0.00282	 0.09414	 0.0	 335.0	 335.0	 335.0	 1.0	 0.0	 1	 -30.0	 30.0;
	97	 99	 0.00282	 0.09414	 0.0	 335.0	 335.0	 335.0	 1.0	 0.0	 1	 -30.0	 30.0;
	97	 100	 0.0042	 0.14004	 0.0	 225.0	 225.0	 225.0	 1.0	 0.0	 1	 -30.0	 30.0;
	97	 101	 0.0042	 0.14004	 0.0	 225.0	 225.0	 225.0	 1.0	 0.0	 1	 -30.0	 30.0;
	103	 104	 0.00347	 0.115	 0.0	 274.0	 274.0	 274.0	 1.0	 0.0	 1	 -30.0	 30.0;
	104	 105	 0.006	 0.06	 0.0	 523.0	 523.0	 523.0	 1.0	 0.0	 1	 -30.0	 30.0;
	104	 107	 0.0044	 0.072	 0.0	 437.0	 437.0	 437.0	 1.0	 0.0	 1	 -30.0	 30.0;
	105	 106	 0.0045	 0.045	 0.0	 698.0	 698.0	 698.0	 1.0	 0.0	 1	 -30.0	 30.0;
	105	 108	 0.0044	 0.072	 0.0	 437.0	 437.0	 437.0	 1.0	 0.0	 1	 -30.0	 30.0;
	109	 110	 0.00635	 0.0987	 0.0	 319.0	 319.0	 319.0	 1.0	 0.0	 1	 -30.0	 30.0;
	110	 111	 0.0045	 0.045	 0.0	 698.0	 698.0	 698.0	 1.0	 0.0	 1	 -30.0	 30.0;
	110	 112	 0.0044	 0.072	 0.0	 437.0	 437.0	 437.0	 1.0	 0.0	 1	 -30.0	 30.0;
	113	 114	 0.00477	 0.0917	 0.0	 343.0	 343.0	 343.0	 1.0	 0.0	 1	 -30.0	 30.0;
	115	 116	 0.00447	 0.1218	 0.0	 259.0	 259.0	 259.0	 1.0	 0.0	 1	 -30.0	 30.0;
	116	 118	 0.00536	 0.13302	 0.0	 237.0	 237.0	 237.0	 1.0	 0.0	 1	 -30.0	 30.0;
	117	 118	 0.00431	 0.07931	 0.0	 397.0	 397.0	 397.0	 1.0	 0.0	 1	 -30.0	 30.0;
	119	 120	 0.00552	 0.0987	 0.0	 319.0	 319.0	 319.0	 1.0	 0.0	 1	 -30.0	 30.0;
	120	 121	 0.004	 0.04	 0.0	 785.0	 785.0	 785.0	 1.0	 0.0	 1	 -30.0	 30.0;
	120	 122	 0.0044	 0.072	 0.0	 437.0	 437.0	 437.0	 1.0	 0.0	 1	 -30.0	 30.0;
	123	 124	 0.00535	 0.12914	 0.0	 244.0	 244.0	 244.0	 1.0	 0.0	 1	 -30.0	 30.0;
	125	 126	 0.00297	 0.1051	 0.0	 300.0	 300.0	 300.0	 1.0	 0.0	 1	 -30.0	 30.0;
	125	 127	 0.00297	 0.1051	 0.0	 300.0	 300.0	 300.0	 1.0	 0.0	 1	 -30.0	 30.0;
	126	 128	 0.0006	 0.06	 0.0	 61.0	 61.0	 61.0	 1.0	 0.0	 1	 -30.0	 30.0;
	127	 129	 0.0006	 0.06	 0.0	 61.0	 61.0	 61.0	 1.0	 0.0	 1	 -30.0	 30.0;
	130	 131	 0.00499	 0.1432	 0.0	 220.0	 220.0	 220.0	 1.0	 0.0	 1	 -30.0	 30.0;
	132	 133	 0.00492	 0.1179	 0.0	 267.0	 267.0	 267.0	 1.0	 0.0	 1	 -30.0	 30.0;
	133	 134	 0.008	 0.08	 0.0	 392.0	 392.0	 392.0	 1.0	 0.0	 1	 -30.0	 30.0;
	134	 135	 0.006	 0.06	 0.0	 523.0	 523.0	 523.0	 1.0	 0.0	 1	 -30.0	 30.0;
	134	 136	 0.00011	 0.0018	 0.0	 25.0	 25.0	 25.0	 1.0	 0.0	 1	 -30.0	 30.0;
	137	 138	 0.0042	 0.14004	 0.0	 225.0	 225.0	 225.0	 1.0	 0.0	 1	 -30.0	 30.0;
	137	 139	 0.0042	 0.14044	 0.0	 224.0	 224.0	 224.0	 1.0	 0.0	 1	 -30.0	 30.0;
	138	 140	 0.0044	 0.044	 0.0	 714.0	 714.0	 714.0	 1.0	 0.0	 1	 -30.0	 30.0;
	139	 140	 0.0044	 0.044	 0.0	 714.0	 714.0	 714.0	 1.0	 0.0	 1	 -30.0	 30.0;
	139	 141	 0.00629	 0.06169	 0.0	 20.0	 20.0	 20.0	 1.0	 0.0	 1	 -30.0	 30.0;
	143	 144	 0.00694	 0.13939	 0.0	 226.0	 226.0	 226.0	 1.0	 0.0	 1	 -30.0	 30.0;
	143	 145	 0.0042	 0.0843	 0.0	 374.0	 374.0	 374.0	 1.0	 0.0	 1	 -30.0	 30.0;
	143	 146	 0.01002	 0.10017	 0.0	 313.0	 313.0	 313.0	 1.0	 0.0	 1	 -30.0	 30.0;
	143	 147	 0.012	 0.12	 0.0	 261.0	 261.0	 261.0	 1.0	 0.0	 1	 -30.0	 30.0;
	144	 148	 0.00573	 0.0573	 0.0	 548.0	 548.0	 548.0	 1.0	 0.0	 1	 -30.0	 30.0;
	146	 152	 0.001	 0.01	 0.0	 12.0	 12.0	 12.0	 1.0	 0.0	 1	 -30.0	 30.0;
	147	 149	 0.00573	 0.0573	 0.0	 548.0	 548.0	 548.0	 1.0	 0.0	 1	 -30.0	 30.0;
	148	 152	 0.00573	 0.0573	 0.0	 548.0	 548.0	 548.0	 1.0	 0.0	 1	 -30.0	 30.0;
	149	 153	 0.96	 9.55	 0.0	 3.0	 3.0	 3.0	 1.0	 0.0	 1	 -30.0	 30.0;
	150	 153	 2.667	 26.67	 0.0	 1.0	 1.0	 1.0	 1.0	 0.0	 1	 -30.0	 30.0;
	151	 153	 2.667	 26.67	 0.0	 1.0	 1.0	 1.0	 1.0	 0.0	 1	 -30.0	 30.0;
	152	 153	 0.00288	 0.02865	 0.0	 12.0	 12.0	 12.0	 1.0	 0.0	 1	 -30.0	 30.0;
	152	 154	 2.667	 26.67	 0.0	 1.0	 1.0	 1.0	 1.0	 0.0	 1	 -30.0	 30.0;
	157	 156	 0.00563	 0.12099	 0.0	 260.0	 260.0	 260.0	 1.0	 0.0	 1	 -30.0	 30.0;
	158	 159	 0.00347	 0.115	 0.0	 274.0	 274.0	 274.0	 1.0	 0.0	 1	 -30.0	 30.0;
	159	 160	 0.00011	 0.0018	 0.0	 9900.0	 9900.0	 9900.0	 1.0	 0.0	 1	 -30.0	 30.0;
	161	 163	 0.006	 0.1078	 0.0	 292.0	 292.0	 292.0	 1.0	 0.0	 1	 -30.0	 30.0;
	163	 162	 0.006	 0.06	 0.0	 523.0	 523.0	 523.0	 1.0	 0.0	 1	 -30.0	 30.0;
	162	 164	 0.0044	 0.044	 0.0	 714.0	 714.0	 714.0	 1.0	 0.0	 1	 -30.0	 30.0;
	163	 165	 0.0044	 0.072	 0.0	 437.0	 437.0	 437.0	 1.0	 0.0	 1	 -30.0	 30.0;
	166	 167	 0.00454	 0.1077	 0.0	 293.0	 293.0	 293.0	 1.0	 0.0	 1	 -30.0	 30.0;
	167	 168	 0.0044	 0.044	 0.0	 714.0	 714.0	 714.0	 1.0	 0.0	 1	 -30.0	 30.0;
	167	 169	 0.0044	 0.072	 0.0	 25.0	 25.0	 25.0	 1.0	 0.0	 1	 -30.0	 30.0;
	167	 171	 0.0063	 0.0693	 0.0	 453.0	 453.0	 453.0	 1.0	 0.0	 1	 -30.0	 30.0;
	172	 173	 0.00508	 0.07896	 0.0	 399.0	 399.0	 399.0	 1.0	 0.0	 1	 -30.0	 30.0;
	173	 174	 0.0045	 0.045	 0.0	 698.0	 698.0	 698.0	 1.0	 0.0	 1	 -30.0	 30.0;
	173	 175	 0.0044	 0.072	 0.0	 437.0	 437.0	 437.0	 1.0	 0.0	 1	 -30.0	 30.0;
	177	 176	 0.00363	 0.12	 0.0	 263.0	 263.0	 263.0	 1.0	 0.0	 1	 -30.0	 30.0;
	188	 178	 0.005	 0.12	 0.0	 262.0	 262.0	 262.0	 1.0	 0.0	 1	 -30.0	 30.0;
	188	 179	 0.00501	 0.12	 0.0	 262.0	 262.0	 262.0	 1.0	 0.0	 1	 -30.0	 30.0;
	188	 180	 0.00501	 0.12	 0.0	 262.0	 262.0	 262.0	 1.0	 0.0	 1	 -30.0	 30.0;
...
];

% INFO    : === Translation Options ===
% INFO    : Load Model:                  from file ./nesta_case189_edin.dat.sol
% INFO    : Gen Active Capacity Model:   stat
% INFO    : Gen Reactive Capacity Model: al50ag
% INFO    : Gen Active Cost Model:       stat
% INFO    : 
% INFO    : === Load Replacement Notes ===
% INFO    : Bus 1	: Pd=0.0, Qd=0.0 -> Pd=0.00, Qd=0.00
% INFO    : Bus 2	: Pd=0.59, Qd=0.26 -> Pd=0.88, Qd=0.26
% INFO    : Bus 3	: Pd=3.52, Qd=1.53 -> Pd=5.26, Qd=1.53
% INFO    : Bus 4	: Pd=0.0, Qd=0.0 -> Pd=0.00, Qd=0.00
% INFO    : Bus 5	: Pd=0.0, Qd=0.0 -> Pd=0.00, Qd=0.00
% INFO    : Bus 6	: Pd=0.0, Qd=0.0 -> Pd=0.00, Qd=0.00
% INFO    : Bus 7	: Pd=0.0, Qd=0.0 -> Pd=0.00, Qd=0.00
% INFO    : Bus 8	: Pd=0.0, Qd=0.0 -> Pd=0.00, Qd=0.00
% INFO    : Bus 9	: Pd=0.0, Qd=0.0 -> Pd=0.00, Qd=0.00
% INFO    : Bus 10	: Pd=0.0, Qd=0.0 -> Pd=0.00, Qd=0.00
% INFO    : Bus 11	: Pd=0.0, Qd=0.0 -> Pd=0.00, Qd=0.00
% INFO    : Bus 12	: Pd=0.0, Qd=0.0 -> Pd=0.00, Qd=0.00
% INFO    : Bus 13	: Pd=0.0, Qd=0.0 -> Pd=0.00, Qd=0.00
% INFO    : Bus 14	: Pd=0.0, Qd=0.0 -> Pd=0.00, Qd=0.00
% INFO    : Bus 15	: Pd=0.0, Qd=0.0 -> Pd=0.00, Qd=0.00
% INFO    : Bus 16	: Pd=0.0, Qd=0.0 -> Pd=0.00, Qd=0.00
% INFO    : Bus 17	: Pd=0.0, Qd=0.0 -> Pd=0.00, Qd=0.00
% INFO    : Bus 18	: Pd=0.0, Qd=0.0 -> Pd=0.00, Qd=0.00
% INFO    : Bus 19	: Pd=0.0, Qd=0.0 -> Pd=0.00, Qd=0.00
% INFO    : Bus 20	: Pd=0.0, Qd=0.0 -> Pd=0.00, Qd=0.00
% INFO    : Bus 21	: Pd=0.0, Qd=0.0 -> Pd=0.00, Qd=0.00
% INFO    : Bus 22	: Pd=7.33, Qd=7.1 -> Pd=10.95, Qd=7.10
% INFO    : Bus 23	: Pd=2.84, Qd=1.89 -> Pd=4.24, Qd=1.89
% INFO    : Bus 24	: Pd=5.61, Qd=4.73 -> Pd=8.38, Qd=4.73
% INFO    : Bus 25	: Pd=0.0, Qd=0.0 -> Pd=0.00, Qd=0.00
% INFO    : Bus 26	: Pd=0.0, Qd=0.0 -> Pd=0.00, Qd=0.00
% INFO    : Bus 27	: Pd=0.0, Qd=0.0 -> Pd=0.00, Qd=0.00
% INFO    : Bus 28	: Pd=0.0, Qd=0.0 -> Pd=0.00, Qd=0.00
% INFO    : Bus 29	: Pd=0.0, Qd=0.0 -> Pd=0.00, Qd=0.00
% INFO    : Bus 30	: Pd=0.0, Qd=0.0 -> Pd=0.00, Qd=0.00
% INFO    : Bus 31	: Pd=0.0, Qd=0.0 -> Pd=0.00, Qd=0.00
% INFO    : Bus 32	: Pd=0.0, Qd=0.0 -> Pd=0.00, Qd=0.00
% INFO    : Bus 33	: Pd=0.0, Qd=0.0 -> Pd=0.00, Qd=0.00
% INFO    : Bus 34	: Pd=0.0, Qd=0.0 -> Pd=0.00, Qd=0.00
% INFO    : Bus 35	: Pd=0.0, Qd=0.0 -> Pd=0.00, Qd=0.00
% INFO    : Bus 36	: Pd=0.0, Qd=0.0 -> Pd=0.00, Qd=0.00
% INFO    : Bus 37	: Pd=2.83, Qd=1.23 -> Pd=4.23, Qd=1.23
% INFO    : Bus 38	: Pd=5.85, Qd=3.53 -> Pd=8.74, Qd=3.53
% INFO    : Bus 39	: Pd=0.0, Qd=0.0 -> Pd=0.00, Qd=0.00
% INFO    : Bus 40	: Pd=0.0, Qd=0.0 -> Pd=0.00, Qd=0.00
% INFO    : Bus 41	: Pd=0.0, Qd=0.0 -> Pd=0.00, Qd=0.00
% INFO    : Bus 42	: Pd=0.0, Qd=0.0 -> Pd=0.00, Qd=0.00
% INFO    : Bus 43	: Pd=0.0, Qd=0.0 -> Pd=0.00, Qd=0.00
% INFO    : Bus 44	: Pd=8.26, Qd=5.12 -> Pd=12.34, Qd=5.12
% INFO    : Bus 45	: Pd=4.01, Qd=2.73 -> Pd=5.99, Qd=2.73
% INFO    : Bus 46	: Pd=0.0, Qd=0.0 -> Pd=0.00, Qd=0.00
% INFO    : Bus 47	: Pd=0.0, Qd=0.0 -> Pd=0.00, Qd=0.00
% INFO    : Bus 48	: Pd=0.0, Qd=0.0 -> Pd=0.00, Qd=0.00
% INFO    : Bus 49	: Pd=7.55, Qd=2.5 -> Pd=11.28, Qd=2.50
% INFO    : Bus 50	: Pd=0.0, Qd=0.0 -> Pd=0.00, Qd=0.00
% INFO    : Bus 51	: Pd=0.0, Qd=0.0 -> Pd=0.00, Qd=0.00
% INFO    : Bus 52	: Pd=0.0, Qd=0.0 -> Pd=0.00, Qd=0.00
% INFO    : Bus 53	: Pd=0.0, Qd=0.0 -> Pd=0.00, Qd=0.00
% INFO    : Bus 54	: Pd=6.23, Qd=2.05 -> Pd=9.31, Qd=2.05
% INFO    : Bus 55	: Pd=0.0, Qd=0.0 -> Pd=0.00, Qd=0.00
% INFO    : Bus 56	: Pd=0.0, Qd=0.0 -> Pd=0.00, Qd=0.00
% INFO    : Bus 57	: Pd=0.0, Qd=0.0 -> Pd=0.00, Qd=0.00
% INFO    : Bus 58	: Pd=0.0, Qd=0.0 -> Pd=0.00, Qd=0.00
% INFO    : Bus 59	: Pd=0.0, Qd=0.0 -> Pd=0.00, Qd=0.00
% INFO    : Bus 60	: Pd=200.86, Qd=68.47 -> Pd=300.08, Qd=68.47
% INFO    : Bus 61	: Pd=0.0, Qd=0.0 -> Pd=0.00, Qd=0.00
% INFO    : Bus 62	: Pd=0.0, Qd=0.0 -> Pd=0.00, Qd=0.00
% INFO    : Bus 63	: Pd=110.14, Qd=36.81 -> Pd=164.55, Qd=36.81
% INFO    : Bus 64	: Pd=0.0, Qd=0.0 -> Pd=0.00, Qd=0.00
% INFO    : Bus 65	: Pd=50.0, Qd=12.0 -> Pd=74.70, Qd=12.00
% INFO    : Bus 66	: Pd=0.0, Qd=0.0 -> Pd=0.00, Qd=0.00
% INFO    : Bus 67	: Pd=80.0, Qd=20.0 -> Pd=119.52, Qd=20.00
% INFO    : Bus 68	: Pd=56.0, Qd=14.0 -> Pd=83.66, Qd=14.00
% INFO    : Bus 69	: Pd=0.0, Qd=0.0 -> Pd=0.00, Qd=0.00
% INFO    : Bus 70	: Pd=34.04, Qd=20.9 -> Pd=50.85, Qd=20.90
% INFO    : Bus 71	: Pd=0.0, Qd=0.0 -> Pd=0.00, Qd=0.00
% INFO    : Bus 72	: Pd=0.0, Qd=0.0 -> Pd=0.00, Qd=0.00
% INFO    : Bus 73	: Pd=0.0, Qd=0.0 -> Pd=0.00, Qd=0.00
% INFO    : Bus 74	: Pd=17.33, Qd=9.28 -> Pd=25.89, Qd=9.28
% INFO    : Bus 75	: Pd=0.0, Qd=0.0 -> Pd=0.00, Qd=0.00
% INFO    : Bus 76	: Pd=0.0, Qd=0.0 -> Pd=0.00, Qd=0.00
% INFO    : Bus 77	: Pd=0.55, Qd=0.24 -> Pd=0.82, Qd=0.24
% INFO    : Bus 78	: Pd=7.76, Qd=3.38 -> Pd=11.59, Qd=3.38
% INFO    : Bus 79	: Pd=0.0, Qd=0.0 -> Pd=0.00, Qd=0.00
% INFO    : Bus 80	: Pd=125.01, Qd=31.3 -> Pd=186.76, Qd=31.30
% INFO    : Bus 81	: Pd=379.0, Qd=92.49 -> Pd=566.21, Qd=92.49
% INFO    : Bus 82	: Pd=0.0, Qd=0.0 -> Pd=0.00, Qd=0.00
% INFO    : Bus 83	: Pd=25.98, Qd=18.84 -> Pd=38.81, Qd=18.84
% INFO    : Bus 84	: Pd=0.0, Qd=0.0 -> Pd=0.00, Qd=0.00
% INFO    : Bus 85	: Pd=15.83, Qd=10.92 -> Pd=23.65, Qd=10.92
% INFO    : Bus 86	: Pd=0.0, Qd=0.0 -> Pd=0.00, Qd=0.00
% INFO    : Bus 87	: Pd=8.34, Qd=8.96 -> Pd=12.46, Qd=8.96
% INFO    : Bus 88	: Pd=0.0, Qd=0.0 -> Pd=0.00, Qd=0.00
% INFO    : Bus 89	: Pd=15.47, Qd=8.04 -> Pd=23.11, Qd=8.04
% INFO    : Bus 90	: Pd=0.0, Qd=0.0 -> Pd=0.00, Qd=0.00
% INFO    : Bus 91	: Pd=8.26, Qd=4.25 -> Pd=12.34, Qd=4.25
% INFO    : Bus 92	: Pd=0.0, Qd=0.0 -> Pd=0.00, Qd=0.00
% INFO    : Bus 93	: Pd=15.11, Qd=10.0 -> Pd=22.57, Qd=10.00
% INFO    : Bus 94	: Pd=0.0, Qd=0.0 -> Pd=0.00, Qd=0.00
% INFO    : Bus 95	: Pd=0.0, Qd=0.0 -> Pd=0.00, Qd=0.00
% INFO    : Bus 96	: Pd=0.0, Qd=0.0 -> Pd=0.00, Qd=0.00
% INFO    : Bus 97	: Pd=0.0, Qd=0.0 -> Pd=0.00, Qd=0.00
% INFO    : Bus 98	: Pd=0.0, Qd=0.0 -> Pd=0.00, Qd=0.00
% INFO    : Bus 99	: Pd=0.0, Qd=0.0 -> Pd=0.00, Qd=0.00
% INFO    : Bus 100	: Pd=0.0, Qd=0.0 -> Pd=0.00, Qd=0.00
% INFO    : Bus 101	: Pd=0.0, Qd=0.0 -> Pd=0.00, Qd=0.00
% INFO    : Bus 102	: Pd=3.78, Qd=1.25 -> Pd=5.65, Qd=1.25
% INFO    : Bus 103	: Pd=0.0, Qd=0.0 -> Pd=0.00, Qd=0.00
% INFO    : Bus 104	: Pd=22.13, Qd=4.05 -> Pd=33.06, Qd=4.05
% INFO    : Bus 105	: Pd=5.35, Qd=2.33 -> Pd=7.99, Qd=2.33
% INFO    : Bus 106	: Pd=0.0, Qd=0.0 -> Pd=0.00, Qd=0.00
% INFO    : Bus 107	: Pd=0.0, Qd=0.0 -> Pd=0.00, Qd=0.00
% INFO    : Bus 108	: Pd=0.0, Qd=0.0 -> Pd=0.00, Qd=0.00
% INFO    : Bus 109	: Pd=0.0, Qd=0.0 -> Pd=0.00, Qd=0.00
% INFO    : Bus 110	: Pd=1.8, Qd=0.2 -> Pd=2.69, Qd=0.20
% INFO    : Bus 111	: Pd=0.0, Qd=0.0 -> Pd=0.00, Qd=0.00
% INFO    : Bus 112	: Pd=0.0, Qd=0.0 -> Pd=0.00, Qd=0.00
% INFO    : Bus 113	: Pd=0.0, Qd=0.0 -> Pd=0.00, Qd=0.00
% INFO    : Bus 114	: Pd=3.0, Qd=-1.0 -> Pd=3.00, Qd=-1.00
% INFO    : Bus 115	: Pd=0.0, Qd=0.0 -> Pd=0.00, Qd=0.00
% INFO    : Bus 116	: Pd=20.0, Qd=2.11 -> Pd=29.88, Qd=2.11
% INFO    : Bus 117	: Pd=4.0, Qd=1.05 -> Pd=5.98, Qd=1.05
% INFO    : Bus 118	: Pd=0.0, Qd=0.0 -> Pd=0.00, Qd=0.00
% INFO    : Bus 119	: Pd=0.0, Qd=0.0 -> Pd=0.00, Qd=0.00
% INFO    : Bus 120	: Pd=2.57, Qd=1.12 -> Pd=3.84, Qd=1.12
% INFO    : Bus 121	: Pd=0.0, Qd=0.0 -> Pd=0.00, Qd=0.00
% INFO    : Bus 122	: Pd=0.0, Qd=0.0 -> Pd=0.00, Qd=0.00
% INFO    : Bus 123	: Pd=0.0, Qd=0.0 -> Pd=0.00, Qd=0.00
% INFO    : Bus 124	: Pd=5.0, Qd=0.92 -> Pd=7.47, Qd=0.92
% INFO    : Bus 125	: Pd=0.0, Qd=0.0 -> Pd=0.00, Qd=0.00
% INFO    : Bus 126	: Pd=0.0, Qd=0.0 -> Pd=0.00, Qd=0.00
% INFO    : Bus 127	: Pd=0.0, Qd=0.0 -> Pd=0.00, Qd=0.00
% INFO    : Bus 128	: Pd=0.0, Qd=0.0 -> Pd=0.00, Qd=0.00
% INFO    : Bus 129	: Pd=0.0, Qd=0.0 -> Pd=0.00, Qd=0.00
% INFO    : Bus 130	: Pd=0.0, Qd=0.0 -> Pd=0.00, Qd=0.00
% INFO    : Bus 131	: Pd=9.0, Qd=1.47 -> Pd=13.45, Qd=1.47
% INFO    : Bus 132	: Pd=0.0, Qd=0.0 -> Pd=0.00, Qd=0.00
% INFO    : Bus 133	: Pd=13.0, Qd=1.0 -> Pd=19.42, Qd=1.00
% INFO    : Bus 134	: Pd=4.08, Qd=1.78 -> Pd=6.10, Qd=1.78
% INFO    : Bus 135	: Pd=0.0, Qd=0.0 -> Pd=0.00, Qd=0.00
% INFO    : Bus 136	: Pd=0.0, Qd=0.0 -> Pd=0.00, Qd=0.00
% INFO    : Bus 137	: Pd=0.0, Qd=0.0 -> Pd=0.00, Qd=0.00
% INFO    : Bus 138	: Pd=0.0, Qd=0.0 -> Pd=0.00, Qd=0.00
% INFO    : Bus 139	: Pd=2.27, Qd=0.99 -> Pd=3.39, Qd=0.99
% INFO    : Bus 140	: Pd=0.0, Qd=0.0 -> Pd=0.00, Qd=0.00
% INFO    : Bus 141	: Pd=0.0, Qd=0.0 -> Pd=0.00, Qd=0.00
% INFO    : Bus 142	: Pd=0.0, Qd=0.0 -> Pd=0.00, Qd=0.00
% INFO    : Bus 143	: Pd=8.08, Qd=0.5 -> Pd=12.07, Qd=0.50
% INFO    : Bus 144	: Pd=0.0, Qd=0.0 -> Pd=0.00, Qd=0.00
% INFO    : Bus 145	: Pd=0.0, Qd=0.0 -> Pd=0.00, Qd=0.00
% INFO    : Bus 146	: Pd=0.0, Qd=0.0 -> Pd=0.00, Qd=0.00
% INFO    : Bus 147	: Pd=0.0, Qd=0.0 -> Pd=0.00, Qd=0.00
% INFO    : Bus 148	: Pd=0.0, Qd=0.0 -> Pd=0.00, Qd=0.00
% INFO    : Bus 149	: Pd=0.0, Qd=0.0 -> Pd=0.00, Qd=0.00
% INFO    : Bus 150	: Pd=0.0, Qd=0.0 -> Pd=0.00, Qd=0.00
% INFO    : Bus 151	: Pd=0.0, Qd=0.0 -> Pd=0.00, Qd=0.00
% INFO    : Bus 152	: Pd=0.0, Qd=0.0 -> Pd=0.00, Qd=0.00
% INFO    : Bus 153	: Pd=0.0, Qd=0.0 -> Pd=0.00, Qd=0.00
% INFO    : Bus 154	: Pd=0.0, Qd=0.0 -> Pd=0.00, Qd=0.00
% INFO    : Bus 155	: Pd=0.01, Qd=0.01 -> Pd=0.01, Qd=0.01
% INFO    : Bus 156	: Pd=17.38, Qd=4.4 -> Pd=25.97, Qd=4.40
% INFO    : Bus 157	: Pd=0.0, Qd=0.0 -> Pd=0.00, Qd=0.00
% INFO    : Bus 158	: Pd=0.0, Qd=0.0 -> Pd=0.00, Qd=0.00
% INFO    : Bus 159	: Pd=10.14, Qd=2.7 -> Pd=15.15, Qd=2.70
% INFO    : Bus 160	: Pd=0.0, Qd=0.0 -> Pd=0.00, Qd=0.00
% INFO    : Bus 161	: Pd=0.0, Qd=0.0 -> Pd=0.00, Qd=0.00
% INFO    : Bus 162	: Pd=2.87, Qd=0.4 -> Pd=4.29, Qd=0.40
% INFO    : Bus 163	: Pd=0.0, Qd=0.0 -> Pd=0.00, Qd=0.00
% INFO    : Bus 164	: Pd=0.0, Qd=0.0 -> Pd=0.00, Qd=0.00
% INFO    : Bus 165	: Pd=0.0, Qd=0.0 -> Pd=0.00, Qd=0.00
% INFO    : Bus 166	: Pd=0.0, Qd=0.0 -> Pd=0.00, Qd=0.00
% INFO    : Bus 167	: Pd=7.26, Qd=0.4 -> Pd=10.85, Qd=0.40
% INFO    : Bus 168	: Pd=0.0, Qd=0.0 -> Pd=0.00, Qd=0.00
% INFO    : Bus 169	: Pd=0.0, Qd=0.0 -> Pd=0.00, Qd=0.00
% INFO    : Bus 170	: Pd=0.0, Qd=0.0 -> Pd=0.00, Qd=0.00
% INFO    : Bus 171	: Pd=0.0, Qd=0.0 -> Pd=0.00, Qd=0.00
% INFO    : Bus 172	: Pd=0.0, Qd=0.0 -> Pd=0.00, Qd=0.00
% INFO    : Bus 173	: Pd=1.73, Qd=0.2 -> Pd=2.58, Qd=0.20
% INFO    : Bus 174	: Pd=0.0, Qd=0.0 -> Pd=0.00, Qd=0.00
% INFO    : Bus 175	: Pd=0.0, Qd=0.0 -> Pd=0.00, Qd=0.00
% INFO    : Bus 176	: Pd=0.0, Qd=0.0 -> Pd=0.00, Qd=0.00
% INFO    : Bus 177	: Pd=0.0, Qd=0.0 -> Pd=0.00, Qd=0.00
% INFO    : Bus 178	: Pd=5.2, Qd=3.0 -> Pd=7.77, Qd=3.00
% INFO    : Bus 179	: Pd=0.0, Qd=0.0 -> Pd=0.00, Qd=0.00
% INFO    : Bus 180	: Pd=0.0, Qd=0.0 -> Pd=0.00, Qd=0.00
% INFO    : Bus 181	: Pd=0.0, Qd=0.0 -> Pd=0.00, Qd=0.00
% INFO    : Bus 182	: Pd=0.0, Qd=0.0 -> Pd=0.00, Qd=0.00
% INFO    : Bus 183	: Pd=0.0, Qd=0.0 -> Pd=0.00, Qd=0.00
% INFO    : Bus 184	: Pd=5.21, Qd=3.0 -> Pd=7.78, Qd=3.00
% INFO    : Bus 185	: Pd=9.67, Qd=1.6 -> Pd=14.45, Qd=1.60
% INFO    : Bus 186	: Pd=0.0, Qd=0.0 -> Pd=0.00, Qd=0.00
% INFO    : Bus 187	: Pd=0.0, Qd=0.0 -> Pd=0.00, Qd=0.00
% INFO    : Bus 188	: Pd=0.0, Qd=0.0 -> Pd=0.00, Qd=0.00
% INFO    : Bus 189	: Pd=0.0, Qd=0.0 -> Pd=0.00, Qd=0.00
% INFO    : 
% INFO    : === Generator Setpoint Replacement Notes ===
% INFO    : Gen at bus 10	: Pg=69.3, Qg=0.0 -> Pg=61.0, Qg=22.0
% INFO    : Gen at bus 2	: Pg=90.0, Qg=0.0 -> Pg=109.0, Qg=38.0
% INFO    : Gen at bus 3	: Pg=90.0, Qg=0.0 -> Pg=114.0, Qg=39.0
% INFO    : Gen at bus 4	: Pg=45.0, Qg=0.0 -> Pg=133.0, Qg=47.0
% INFO    : Gen at bus 8	: Pg=29.01, Qg=0.0 -> Pg=61.0, Qg=22.0
% INFO    : Gen at bus 9	: Pg=29.01, Qg=0.0 -> Pg=61.0, Qg=22.0
% INFO    : Gen at bus 13	: Pg=60.0, Qg=0.0 -> Pg=66.0, Qg=22.0
% INFO    : Gen at bus 14	: Pg=60.0, Qg=0.0 -> Pg=66.0, Qg=22.0
% INFO    : Gen at bus 16	: Pg=45.0, Qg=0.0 -> Pg=35.0, Qg=19.0
% INFO    : Gen at bus 18	: Pg=60.0, Qg=0.0 -> Pg=116.0, Qg=40.0
% INFO    : Gen at bus 19	: Pg=60.0, Qg=0.0 -> Pg=116.0, Qg=40.0
% INFO    : Gen at bus 27	: Pg=13.0, Qg=0.0 -> Pg=32.0, Qg=21.0
% INFO    : Gen at bus 28	: Pg=13.0, Qg=0.0 -> Pg=33.0, Qg=21.0
% INFO    : Gen at bus 29	: Pg=13.0, Qg=0.0 -> Pg=62.0, Qg=24.0
% INFO    : Gen at bus 32	: Pg=11.0, Qg=0.0 -> Pg=1.0, Qg=6.0
% INFO    : Gen at bus 33	: Pg=11.0, Qg=0.0 -> Pg=1.0, Qg=6.0
% INFO    : Gen at bus 36	: Pg=14.6, Qg=0.0 -> Pg=54.0, Qg=20.0
% INFO    : Gen at bus 42	: Pg=40.0, Qg=0.0 -> Pg=168.0, Qg=71.0
% INFO    : Gen at bus 43	: Pg=40.0, Qg=0.0 -> Pg=168.0, Qg=71.0
% INFO    : Gen at bus 50	: Pg=30.0, Qg=0.0 -> Pg=38.0, Qg=28.0
% INFO    : Gen at bus 51	: Pg=30.0, Qg=0.0 -> Pg=38.0, Qg=28.0
% INFO    : Gen at bus 52	: Pg=30.0, Qg=0.0 -> Pg=38.0, Qg=28.0
% INFO    : Gen at bus 53	: Pg=30.0, Qg=0.0 -> Pg=38.0, Qg=28.0
% INFO    : Gen at bus 98	: Pg=50.0, Qg=0.0 -> Pg=31.0, Qg=16.0
% INFO    : Gen at bus 99	: Pg=50.0, Qg=0.0 -> Pg=31.0, Qg=16.0
% INFO    : Gen at bus 102	: Pg=60.0, Qg=0.0 -> Pg=61.0, Qg=21.0
% INFO    : Gen at bus 104	: Pg=4.0, Qg=0.0 -> Pg=200.0, Qg=63.0
% INFO    : Gen at bus 117	: Pg=6.0, Qg=0.0 -> Pg=44.0, Qg=4.0
% INFO    : Gen at bus 126	: Pg=38.0, Qg=0.0 -> Pg=20.0, Qg=1.0
% INFO    : Gen at bus 127	: Pg=38.0, Qg=0.0 -> Pg=20.0, Qg=1.0
% INFO    : Gen at bus 138	: Pg=30.0, Qg=0.0 -> Pg=15.0, Qg=4.0
% INFO    : Gen at bus 139	: Pg=30.0, Qg=0.0 -> Pg=15.0, Qg=-1.0
% INFO    : Gen at bus 142	: Pg=3.0, Qg=0.0 -> Pg=7.0, Qg=-8.0
% INFO    : Gen at bus 144	: Pg=20.0, Qg=0.0 -> Pg=1.0, Qg=5.0
% INFO    : Gen at bus 186	: Pg=6.0, Qg=0.0 -> Pg=62.0, Qg=-13.0
% INFO    : 
% INFO    : === Generator Reactive Capacity Atleast Setpoint Value Notes ===
% INFO    : Gen at bus 10	: Qg 22.0, Qmin -20.0, Qmax 38.0 -> Qmin -26.4, Qmax 38.0
% INFO    : Gen at bus 2	: Qg 38.0, Qmin -20.0, Qmax 34.0 -> Qmin -45.6, Qmax 45.6
% INFO    : Gen at bus 3	: Qg 39.0, Qmin -20.0, Qmax 34.0 -> Qmin -46.8, Qmax 46.8
% INFO    : Gen at bus 4	: Qg 47.0, Qmin -10.0, Qmax 17.0 -> Qmin -56.4, Qmax 56.4
% INFO    : Gen at bus 8	: Qg 22.0, Qmin -15.0, Qmax 15.0 -> Qmin -26.4, Qmax 26.4
% INFO    : Gen at bus 9	: Qg 22.0, Qmin -16.0, Qmax 16.0 -> Qmin -26.4, Qmax 26.4
% INFO    : Gen at bus 13	: Qg 22.0, Qmin -20.0, Qmax 42.0 -> Qmin -26.4, Qmax 42.0
% INFO    : Gen at bus 14	: Qg 22.0, Qmin -20.0, Qmax 42.0 -> Qmin -26.4, Qmax 42.0
% INFO    : Gen at bus 16	: Qg 19.0, Qmin -10.0, Qmax 17.0 -> Qmin -22.8, Qmax 22.8
% INFO    : Gen at bus 18	: Qg 40.0, Qmin -20.0, Qmax 42.0 -> Qmin -48.0, Qmax 42.0
% INFO    : Gen at bus 19	: Qg 40.0, Qmin -20.0, Qmax 42.0 -> Qmin -48.0, Qmax 42.0
% INFO    : Gen at bus 27	: Qg 21.0, Qmin -5.0, Qmax 11.6 -> Qmin -25.2, Qmax 25.2
% INFO    : Gen at bus 28	: Qg 21.0, Qmin -5.0, Qmax 11.6 -> Qmin -25.2, Qmax 25.2
% INFO    : Gen at bus 29	: Qg 24.0, Qmin -5.0, Qmax 7.0 -> Qmin -28.8, Qmax 28.8
% INFO    : Gen at bus 32	: Qg 6.0, Qmin -5.0, Qmax 6.0 -> Qmin -7.2, Qmax 6.0
% INFO    : Gen at bus 33	: Qg 6.0, Qmin -5.0, Qmax 9.9 -> Qmin -7.2, Qmax 9.9
% INFO    : Gen at bus 36	: Qg 20.0, Qmin -2.0, Qmax 3.3 -> Qmin -24.0, Qmax 24.0
% INFO    : Gen at bus 42	: Qg 71.0, Qmin -20.0, Qmax 21.0 -> Qmin -85.2, Qmax 85.2
% INFO    : Gen at bus 43	: Qg 71.0, Qmin -20.0, Qmax 22.0 -> Qmin -85.2, Qmax 85.2
% INFO    : Gen at bus 50	: Qg 28.0, Qmin -20.0, Qmax 20.0 -> Qmin -33.6, Qmax 33.6
% INFO    : Gen at bus 51	: Qg 28.0, Qmin -20.0, Qmax 20.0 -> Qmin -33.6, Qmax 33.6
% INFO    : Gen at bus 52	: Qg 28.0, Qmin -20.0, Qmax 20.0 -> Qmin -33.6, Qmax 33.6
% INFO    : Gen at bus 53	: Qg 28.0, Qmin -20.0, Qmax 20.0 -> Qmin -33.6, Qmax 33.6
% INFO    : Gen at bus 104	: Qg 63.0, Qmin -3.3, Qmax 3.3 -> Qmin -75.6, Qmax 75.6
% INFO    : Gen at bus 117	: Qg 4.0, Qmin 0.0, Qmax 2.5 -> Qmin -4.8, Qmax 4.8
% INFO    : Gen at bus 142	: Qg -8.0, Qmin 0.0, Qmax 1.3 -> Qmin -9.6, Qmax 9.6
% INFO    : Gen at bus 144	: Qg 5.0, Qmin 0.0, Qmax 11.0 -> Qmin -6.0, Qmax 11.0
% INFO    : Gen at bus 186	: Qg -13.0, Qmin 0.0, Qmax 3.0 -> Qmin -15.6, Qmax 15.6
% INFO    : 
% INFO    : === Generator Classification Notes ===
% INFO    : PEL    1   -     7.94
% INFO    : COW    2   -     4.35
% INFO    : NG     32  -    87.71
% INFO    : 
% INFO    : === Generator Active Capacity Stat Model Notes ===
% INFO    : Gen at bus 10 - NG	: Pg=61.0, Pmax=228.0 -> Pmax=169   samples: 2
% INFO    : Gen at bus 2 - NG	: Pg=109.0, Pmax=115.0 -> Pmax=155   samples: 1
% INFO    : Gen at bus 3 - NG	: Pg=114.0, Pmax=95.0 -> Pmax=294   samples: 5
% INFO    : Gen at bus 4 - NG	: Pg=133.0, Pmax=128.0 -> Pmax=208   samples: 1
% INFO    : Gen at bus 8 - NG	: Pg=61.0, Pmax=30.0 -> Pmax=104   samples: 1
% INFO    : Gen at bus 9 - COW	: Pg=61.0, Pmax=32.0 -> Pmax=277   samples: 1
% INFO    : Gen at bus 13 - NG	: Pg=66.0, Pmax=236.0 -> Pmax=91   samples: 1
% INFO    : Gen at bus 14 - NG	: Pg=66.0, Pmax=164.0 -> Pmax=253   samples: 2
% INFO    : Gen at bus 16 - NG	: Pg=35.0, Pmax=164.0 -> Pmax=46   samples: 2
% INFO    : Gen at bus 18 - NG	: Pg=116.0, Pmax=151.0 -> Pmax=155   samples: 1
% INFO    : Gen at bus 19 - NG	: Pg=116.0, Pmax=124.0 -> Pmax=188   samples: 7
% INFO    : Gen at bus 27 - NG	: Pg=32.0, Pmax=46.0 -> Pmax=99   samples: 2
% INFO    : Gen at bus 28 - NG	: Pg=33.0, Pmax=63.0 -> Pmax=84   samples: 2
% INFO    : Gen at bus 29 - NG	: Pg=62.0, Pmax=13.0 -> Pmax=111   samples: 2
% INFO    : Gen at bus 32 - NG	: Pg=1.0, Pmax=11.0 -> Pmax=1   samples: 57
% INFO    : Gen at bus 33 - NG	: Pg=1.0, Pmax=20.0 -> Pmax=4   samples: 93
% INFO    : Gen at bus 36 - NG	: Pg=54.0, Pmax=52.0 -> Pmax=158   samples: 1
% INFO    : Gen at bus 42 - NG	: Pg=168.0, Pmax=42.0 -> Pmax=171   samples: 1
% INFO    : Gen at bus 43 - PEL	: Pg=168.0, Pmax=166.0 -> Pmax=243   samples: 53
% INFO    : Gen at bus 50 - NG	: Pg=38.0, Pmax=72.0 -> Pmax=184   samples: 1
% INFO    : Gen at bus 51 - NG	: Pg=38.0, Pmax=88.0 -> Pmax=113   samples: 1
% INFO    : Gen at bus 52 - NG	: Pg=38.0, Pmax=112.0 -> Pmax=111   samples: 1
% INFO    : Gen at bus 53 - NG	: Pg=38.0, Pmax=111.0 -> Pmax=46   samples: 1
% INFO    : Gen at bus 98 - COW	: Pg=31.0, Pmax=121.0 -> Pmax=53   samples: 4
% INFO    : Gen at bus 99 - NG	: Pg=31.0, Pmax=65.0 -> Pmax=128   samples: 1
% INFO    : Gen at bus 102 - NG	: Pg=61.0, Pmax=218.0 -> Pmax=81   samples: 2
% INFO    : Gen at bus 104 - NG	: Pg=200.0, Pmax=11.0 -> Pmax=282   samples: 6
% INFO    : Gen at bus 117 - NG	: Pg=44.0, Pmax=6.0 -> Pmax=194   samples: 1
% INFO    : Gen at bus 126 - NG	: Pg=20.0, Pmax=40.0 -> Pmax=84   samples: 1
% INFO    : Gen at bus 127 - NG	: Pg=20.0, Pmax=101.0 -> Pmax=64   samples: 3
% INFO    : Gen at bus 138 - NG	: Pg=15.0, Pmax=58.0 -> Pmax=37   samples: 1
% INFO    : Gen at bus 139 - NG	: Pg=15.0, Pmax=95.0 -> Pmax=56   samples: 1
% INFO    : Gen at bus 142 - NG	: Pg=7.0, Pmax=7.0 -> Pmax=33   samples: 7
% INFO    : Gen at bus 144 - NG	: Pg=1.0, Pmax=21.0 -> Pmax=2   samples: 1
% INFO    : Gen at bus 186 - NG	: Pg=62.0, Pmax=6.0 -> Pmax=74   samples: 2
% INFO    : 
% INFO    : === Generator Active Capacity LB Model Notes ===
% INFO    : 
% INFO    : === Generator Reactive Capacity Atleast Max 50 Percent Active Model Notes ===
% INFO    : Gen at bus 10 - NG	: Pmax 169.0, Qmin -26.4, Qmax 38.0 -> Qmin -85.0, Qmax 85.0
% INFO    : Gen at bus 2 - NG	: Pmax 155.0, Qmin -45.6, Qmax 45.6 -> Qmin -78.0, Qmax 78.0
% INFO    : Gen at bus 3 - NG	: Pmax 294.0, Qmin -46.8, Qmax 46.8 -> Qmin -147.0, Qmax 147.0
% INFO    : Gen at bus 4 - NG	: Pmax 208.0, Qmin -56.4, Qmax 56.4 -> Qmin -104.0, Qmax 104.0
% INFO    : Gen at bus 8 - NG	: Pmax 104.0, Qmin -26.4, Qmax 26.4 -> Qmin -52.0, Qmax 52.0
% INFO    : Gen at bus 9 - COW	: Pmax 277.0, Qmin -26.4, Qmax 26.4 -> Qmin -139.0, Qmax 139.0
% INFO    : Gen at bus 13 - NG	: Pmax 91.0, Qmin -26.4, Qmax 42.0 -> Qmin -46.0, Qmax 46.0
% INFO    : Gen at bus 14 - NG	: Pmax 253.0, Qmin -26.4, Qmax 42.0 -> Qmin -127.0, Qmax 127.0
% INFO    : Gen at bus 16 - NG	: Pmax 46.0, Qmin -22.8, Qmax 22.8 -> Qmin -23.0, Qmax 23.0
% INFO    : Gen at bus 18 - NG	: Pmax 155.0, Qmin -48.0, Qmax 42.0 -> Qmin -78.0, Qmax 78.0
...